@<TRIPOS>MOLECULE
    MOL
   39    39     0     0     0
SMALL
USER_CHARGES

@<TRIPOS>ATOM
      1 C1          7.5620   38.8560   27.5150 c3       1 MOL      -0.0288
      2 C2          8.2590   40.1330   26.9660 c3       1 MOL      -0.0196
      3 C3          7.4790   38.7970   29.0660 c3       1 MOL      -0.0196
      4 C4          9.7100   40.4250   27.4690 c3       1 MOL      -0.0290
      5 C5          7.1850   37.3650   29.5930 c3       1 MOL      -0.0290
      6 C6         10.7810   39.3310   27.1570 c3       1 MOL      -0.0162
      7 C7          7.5070   37.1550   31.1050 c3       1 MOL      -0.0162
      8 C8         10.8890   38.1500   28.1700 c3       1 MOL      -0.0497
      9 C9          8.9690   37.4800   31.5490 c3       1 MOL      -0.0497
     10 C10        11.3370   38.5640   29.6040 za       1 MOL      -0.0561
     11 C11        10.0700   36.6370   30.8300 za       1 MOL      -0.0561
     12 C12        11.4240   37.3770   30.6120 zb       1 MOL       0.0171
     13 N1         12.0250   37.8170   31.9320 zc       1 MOL      -0.4877
     14 H1          6.5430   38.8080   27.1090 hc       1 MOL       0.0380
     15 H2          8.0740   37.9720   27.1170 hc       1 MOL       0.0380
     16 H3          8.2740   40.0730   25.8690 hc       1 MOL       0.0161
     17 H4          7.6300   41.0010   27.2060 hc       1 MOL       0.0161
     18 H5          8.4180   39.1540   29.4860 hc       1 MOL       0.0161
     19 H6          6.7030   39.4890   29.4210 hc       1 MOL       0.0161
     20 H7         10.0340   41.3440   26.9650 hc       1 MOL       0.0190
     21 H8          9.7030   40.6860   28.5320 hc       1 MOL       0.0190
     22 H9          6.1230   37.1430   29.4250 hc       1 MOL       0.0190
     23 H10         7.7320   36.6260   28.9960 hc       1 MOL       0.0190
     24 H11        10.5890   38.9250   26.1550 hc       1 MOL       0.0349
     25 H12        11.7620   39.8180   27.0940 hc       1 MOL       0.0349
     26 H13         6.8170   37.7720   31.6960 hc       1 MOL       0.0349
     27 H14         7.2780   36.1140   31.3690 hc       1 MOL       0.0349
     28 H15         9.9350   37.6210   28.2030 hc       1 MOL       0.0243
     29 H16        11.6130   37.4260   27.7740 hc       1 MOL       0.0243
     30 H17         9.1500   38.5540   31.4380 hc       1 MOL       0.0243
     31 H18         9.0430   37.2950   32.6290 hc       1 MOL       0.0243
     32 H19        12.3270   39.0310   29.5220 hc       1 MOL       0.0474
     33 H20        10.6750   39.3390   30.0000 hc       1 MOL       0.0474
     34 H21        10.2540   35.7340   31.4260 hc       1 MOL       0.0474
     35 H22         9.7080   36.2500   29.8720 hc       1 MOL       0.0474
     36 H23        12.1140   36.6480   30.1720 hx       1 MOL       0.1332
     37 H24        11.3860   38.4650   32.4170 zd       1 MOL       0.3548
     38 H25        12.9240   38.3040   31.7980 zd       1 MOL       0.3548
     39 H26        12.1760   37.0130   32.5610 zd       1 MOL       0.3548
@<TRIPOS>BOND
     1     1     2    1
     2     1     3    1
     3     1    14    1
     4     1    15    1
     5     2     4    1
     6     2    16    1
     7     2    17    1
     8     3     5    1
     9     3    18    1
    10     3    19    1
    11     4     6    1
    12     4    20    1
    13     4    21    1
    14     5     7    1
    15     5    22    1
    16     5    23    1
    17     6     8    1
    18     6    24    1
    19     6    25    1
    20     7     9    1
    21     7    26    1
    22     7    27    1
    23     8    10    1
    24     8    28    1
    25     8    29    1
    26     9    11    1
    27     9    30    1
    28     9    31    1
    29    10    12    1
    30    10    32    1
    31    10    33    1
    32    11    12    1
    33    11    34    1
    34    11    35    1
    35    12    13    1
    36    12    36    1
    37    13    37    1
    38    13    38    1
    39    13    39    1
