@<TRIPOS>MOLECULE
    MOL
   39    39     0     0     0
SMALL
USER_CHARGES

@<TRIPOS>ATOM
      1 C1          7.5558   38.8604   27.5109 c3       1 MOL      -0.0288
      2 C2          8.2541   40.1378   26.9635 c3       1 MOL      -0.0196
      3 C3          7.4740   38.7968   29.0617 c3       1 MOL      -0.0196
      4 C4          9.7063   40.4248   27.4662 c3       1 MOL      -0.0290
      5 C5          7.1851   37.3635   29.5869 c3       1 MOL      -0.0290
      6 C6         10.7754   39.3287   27.1561 c3       1 MOL      -0.0162
      7 C7          7.5048   37.1535   31.0998 c3       1 MOL      -0.0162
      8 C8         10.8845   38.1510   28.1727 c3       1 MOL      -0.0497
      9 C9          8.9666   37.4772   31.5447 c3       1 MOL      -0.0497
     10 C10        11.3358   38.5661   29.6043 za       1 MOL      -0.0561
     11 C11        10.0697   36.6334   30.8317 za       1 MOL      -0.0561
     12 C12        11.4237   37.3799   30.6175 zb       1 MOL       0.0171
     13 N1         12.0371   37.8162   31.9423 zc       1 MOL      -0.4877
     14 H1          6.5369   38.8145   27.1047 hc       1 MOL       0.0380
     15 H2          8.0679   37.9775   27.1114 hc       1 MOL       0.0380
     16 H3          8.2689   40.0799   25.8674 hc       1 MOL       0.0161
     17 H4          7.6286   41.0058   27.2088 hc       1 MOL       0.0161
     18 H5          8.4137   39.1538   29.4824 hc       1 MOL       0.0161
     19 H6          6.6983   39.4859   29.4198 hc       1 MOL       0.0161
     20 H7         10.0338   41.3438   26.9629 hc       1 MOL       0.0190
     21 H8          9.7009   40.6840   28.5299 hc       1 MOL       0.0190
     22 H9          6.1249   37.1359   29.4161 hc       1 MOL       0.0190
     23 H10         7.7406   36.6289   28.9927 hc       1 MOL       0.0190
     24 H11        10.5853   38.9204   26.1548 hc       1 MOL       0.0349
     25 H12        11.7576   39.8154   27.0951 hc       1 MOL       0.0349
     26 H13         6.8161   37.7717   31.6905 hc       1 MOL       0.0349
     27 H14         7.2771   36.1122   31.3628 hc       1 MOL       0.0349
     28 H15         9.9320   37.6208   28.2101 hc       1 MOL       0.0243
     29 H16        11.6095   37.4267   27.7792 hc       1 MOL       0.0243
     30 H17         9.1530   38.5499   31.4319 hc       1 MOL       0.0243
     31 H18         9.0421   37.2948   32.6244 hc       1 MOL       0.0243
     32 H19        12.3274   39.0302   29.5229 hc       1 MOL       0.0474
     33 H20        10.6772   39.3442   30.0033 hc       1 MOL       0.0474
     34 H21        10.2564   35.7376   31.4384 hc       1 MOL       0.0474
     35 H22         9.7128   36.2388   29.8760 hc       1 MOL       0.0474
     36 H23        12.1121   36.6502   30.1754 hx       1 MOL       0.1332
     37 H24        11.4202   38.4920   32.4181 zd       1 MOL       0.3548
     38 H25        12.9515   38.2730   31.8034 zd       1 MOL       0.3548
     39 H26        12.1642   37.0148   32.5792 zd       1 MOL       0.3548
@<TRIPOS>BOND
     1     1     2    1
     2     1     3    1
     3     1    14    1
     4     1    15    1
     5     2     4    1
     6     2    16    1
     7     2    17    1
     8     3     5    1
     9     3    18    1
    10     3    19    1
    11     4     6    1
    12     4    20    1
    13     4    21    1
    14     5     7    1
    15     5    22    1
    16     5    23    1
    17     6     8    1
    18     6    24    1
    19     6    25    1
    20     7     9    1
    21     7    26    1
    22     7    27    1
    23     8    10    1
    24     8    28    1
    25     8    29    1
    26     9    11    1
    27     9    30    1
    28     9    31    1
    29    10    12    1
    30    10    32    1
    31    10    33    1
    32    11    12    1
    33    11    34    1
    34    11    35    1
    35    12    13    1
    36    12    36    1
    37    13    37    1
    38    13    38    1
    39    13    39    1
