@<TRIPOS>MOLECULE
    MOL
   27    27     0     0     0
SMALL
USER_CHARGES

@<TRIPOS>ATOM
      1 C1          8.8062   38.0696   30.7132 c3       1 MOL      -0.0409
      2 C2          7.7956   38.7992   29.7878 c3       1 MOL      -0.0715
      3 C3          9.0572   36.5800   30.3453 c3       1 MOL      -0.0715
      4 C4          7.9501   38.5592   28.2601 c3       1 MOL      -0.0228
      5 C5         10.4953   36.2684   29.8502 c3       1 MOL      -0.0228
      6 C6          9.3770   38.8072   27.6874 za       1 MOL      -0.2633
      7 C7         11.1224   37.2596   28.8220 za       1 MOL      -0.2633
      8 C8         10.3056   37.5674   27.5425 zb       1 MOL       0.0505
      9 N1          9.6121   36.3514   26.9792 zc       1 MOL      -0.4635
     10 H1          9.7456   38.6327   30.7556 hc       1 MOL       0.0592
     11 H2          8.4114   38.1121   31.7375 hc       1 MOL       0.0592
     12 H3          6.7789   38.5028   30.0785 hc       1 MOL       0.0467
     13 H4          7.8586   39.8773   29.9872 hc       1 MOL       0.0467
     14 H5          8.8778   35.9727   31.2429 hc       1 MOL       0.0467
     15 H6          8.3194   36.2220   29.6192 hc       1 MOL       0.0467
     16 H7          7.5764   37.5652   27.9903 hc       1 MOL       0.0353
     17 H8          7.2635   39.2560   27.7604 hc       1 MOL       0.0353
     18 H9         11.1565   36.2320   30.7267 hc       1 MOL       0.0353
     19 H10        10.5093   35.2533   29.4322 hc       1 MOL       0.0353
     20 H11         9.2525   39.2444   26.6865 hc       1 MOL       0.1385
     21 H12         9.8753   39.6000   28.2639 hc       1 MOL       0.1385
     22 H13        11.4022   38.1949   29.3261 hc       1 MOL       0.1385
     23 H14        12.0881   36.8336   28.5144 hc       1 MOL       0.1385
     24 H15        11.0481   37.8621   26.7919 hx       1 MOL       0.1019
     25 H16         9.0220   35.9184   27.7034 zd       1 MOL       0.3557
     26 H17        10.2955   35.6467   26.6659 zd       1 MOL       0.3557
     27 H18         9.0126   36.6026   26.1797 zd       1 MOL       0.3557
@<TRIPOS>BOND
     1     1     2    1
     2     1     3    1
     3     1    10    1
     4     1    11    1
     5     2     4    1
     6     2    12    1
     7     2    13    1
     8     3     5    1
     9     3    14    1
    10     3    15    1
    11     4     6    1
    12     4    16    1
    13     4    17    1
    14     5     7    1
    15     5    18    1
    16     5    19    1
    17     6     8    1
    18     6    20    1
    19     6    21    1
    20     7     8    1
    21     7    22    1
    22     7    23    1
    23     8     9    1
    24     8    24    1
    25     9    25    1
    26     9    26    1
    27     9    27    1
