@<TRIPOS>MOLECULE
    MOL
   26    28     0     0     0
SMALL
USER_CHARGES

@<TRIPOS>ATOM
      1 C1          9.7960   37.8390   28.8820 c3       1 MOL      -0.1028
      2 C2          7.7480   38.9250   29.9340 c3       1 MOL      -0.1928
      3 C3          8.2370   36.5430   30.4220 c3       1 MOL      -0.1928
      4 C4          9.8550   39.5280   30.7870 c3       1 MOL      -0.2275
      5 C5         10.3430   37.1550   31.2740 c3       1 MOL      -0.2275
      6 C6          9.1840   39.1840   29.4440 c3       1 MOL       0.0623
      7 C7          9.6980   36.6830   29.9570 c3       1 MOL       0.0623
      8 C8          8.0070   37.9230   31.0870 za       1 MOL       0.0122
      9 C9          9.4170   38.3330   31.6740 zb       1 MOL       0.2242
     10 N1          9.4250   38.6370   33.1460 zc       1 MOL      -0.4559
     11 H1          9.2650   37.5420   27.9670 hc       1 MOL       0.0644
     12 H2         10.8450   37.9960   28.5970 hc       1 MOL       0.0644
     13 H3          7.2820   39.8480   30.3070 hc       1 MOL       0.0865
     14 H4          7.1030   38.5200   29.1410 hc       1 MOL       0.0865
     15 H5          7.5520   36.3400   29.5880 hc       1 MOL       0.0865
     16 H6          8.1280   35.7270   31.1510 hc       1 MOL       0.0865
     17 H7         10.9450   39.6240   30.6880 hc       1 MOL       0.0919
     18 H8          9.4690   40.4800   31.1760 hc       1 MOL       0.0919
     19 H9         10.3180   36.3520   32.0230 hc       1 MOL       0.0919
     20 H10        11.3920   37.4490   31.1340 hc       1 MOL       0.0919
     21 H11         9.2410   40.0060   28.7160 hc       1 MOL       0.0659
     22 H12        10.1180   35.7350   29.5920 hc       1 MOL       0.0659
     23 H13         7.1920   37.9060   31.8230 hc       1 MOL       0.0568
     24 H14        10.3710   38.8990   33.4610 zd       1 MOL       0.3358
     25 H15         9.1240   37.8170   33.6920 zd       1 MOL       0.3358
     26 H16         8.7900   39.4180   33.3630 zd       1 MOL       0.3358
@<TRIPOS>BOND
     1     1     6    1
     2     1     7    1
     3     1    11    1
     4     1    12    1
     5     2     6    1
     6     2     8    1
     7     2    13    1
     8     2    14    1
     9     3     7    1
    10     3     8    1
    11     3    15    1
    12     3    16    1
    13     4     6    1
    14     4     9    1
    15     4    17    1
    16     4    18    1
    17     5     7    1
    18     5     9    1
    19     5    19    1
    20     5    20    1
    21     6    21    1
    22     7    22    1
    23     8     9    1
    24     8    23    1
    25     9    10    1
    26    10    24    1
    27    10    25    1
    28    10    26    1
