@<TRIPOS>MOLECULE
    MOL
   26    28     0     0     0
SMALL
USER_CHARGES

@<TRIPOS>ATOM
      1 C1          9.7971   37.8401   28.8877 c3       1 MOL      -0.1028
      2 C2          7.7475   38.9227   29.9330 c3       1 MOL      -0.1928
      3 C3          8.2365   36.5440   30.4207 c3       1 MOL      -0.1928
      4 C4          9.8496   39.5240   30.7926 c3       1 MOL      -0.2275
      5 C5         10.3359   37.1583   31.2777 c3       1 MOL      -0.2275
      6 C6          9.1833   39.1833   29.4470 c3       1 MOL       0.0623
      7 C7          9.6969   36.6845   29.9594 c3       1 MOL       0.0623
      8 C8          8.0008   37.9216   31.0863 za       1 MOL       0.0122
      9 C9          9.4118   38.3326   31.6762 zb       1 MOL       0.2242
     10 N1          9.4352   38.6384   33.1435 zc       1 MOL      -0.4559
     11 H1          9.2682   37.5436   27.9721 hc       1 MOL       0.0644
     12 H2         10.8465   37.9980   28.6062 hc       1 MOL       0.0644
     13 H3          7.2792   39.8461   30.3007 hc       1 MOL       0.0865
     14 H4          7.1067   38.5183   29.1373 hc       1 MOL       0.0865
     15 H5          7.5542   36.3416   29.5836 hc       1 MOL       0.0865
     16 H6          8.1262   35.7256   31.1455 hc       1 MOL       0.0865
     17 H7         10.9394   39.6220   30.6948 hc       1 MOL       0.0919
     18 H8          9.4623   40.4772   31.1776 hc       1 MOL       0.0919
     19 H9         10.3102   36.3521   32.0234 hc       1 MOL       0.0919
     20 H10        11.3855   37.4518   31.1399 hc       1 MOL       0.0919
     21 H11         9.2427   40.0055   28.7201 hc       1 MOL       0.0659
     22 H12        10.1201   35.7378   29.5952 hc       1 MOL       0.0659
     23 H13         7.1857   37.9049   31.8220 hc       1 MOL       0.0568
     24 H14        10.3871   38.8964   33.4388 zd       1 MOL       0.3358
     25 H15         9.1346   37.8174   33.6868 zd       1 MOL       0.3358
     26 H16         8.8019   39.4211   33.3579 zd       1 MOL       0.3358
@<TRIPOS>BOND
     1     1     6    1
     2     1     7    1
     3     1    11    1
     4     1    12    1
     5     2     6    1
     6     2     8    1
     7     2    13    1
     8     2    14    1
     9     3     7    1
    10     3     8    1
    11     3    15    1
    12     3    16    1
    13     4     6    1
    14     4     9    1
    15     4    17    1
    16     4    18    1
    17     5     7    1
    18     5     9    1
    19     5    19    1
    20     5    20    1
    21     6    21    1
    22     7    22    1
    23     8     9    1
    24     8    23    1
    25     9    10    1
    26    10    24    1
    27    10    25    1
    28    10    26    1
