@<TRIPOS>MOLECULE
    MOL
   54    56     0     0     0
SMALL
USER_CHARGES

@<TRIPOS>ATOM
      1 C1          7.7760    1.6480    1.5280 ca       1 MOL      -0.0752
      2 C2         -1.8070   -3.9120   -3.6640 ca       1 MOL      -0.0811
      3 C3          7.4400    3.0000    1.3560 ca       1 MOL      -0.1596
      4 C4          7.0530    0.6560    0.8480 ca       1 MOL      -0.1596
      5 C5         -1.9200   -3.5630   -2.3080 ca       1 MOL      -0.1763
      6 C6         -0.7170   -3.4500   -4.4200 ca       1 MOL      -0.1763
      7 C7          6.3860    3.3610    0.5000 za       1 MOL      -0.1416
      8 C8          6.0010    1.0140   -0.0100 za       1 MOL      -0.1416
      9 C9         -0.9390   -2.7570   -1.7070 zb       1 MOL      -0.0994
     10 C10         0.2630   -2.6440   -3.8170 zb       1 MOL      -0.0994
     11 C11         5.6760    2.3700   -0.2050 zc       1 MOL       0.0246
     12 C12         0.1600   -2.3090   -2.4570 zd       1 MOL      -0.0144
     13 C13         2.2910   -1.9880   -1.2440 ze       1 MOL       0.4749
     14 C14         1.9360    0.7230   -2.7620 zf       1 MOL      -0.0370
     15 C15         0.6530    0.5740   -0.4870 zf       1 MOL      -0.0370
     16 C16         1.8660    2.2550   -2.6150 zg       1 MOL      -0.0714
     17 C17         0.6660    2.1170   -0.4660 zg       1 MOL      -0.0714
     18 C18         0.8610   -0.0230   -1.9140 zh       1 MOL      -0.0336
     19 C19         3.7820   -4.0140   -0.6360 zi       1 MOL      -0.0851
     20 C20         4.4960    2.7430   -1.0860 zj       1 MOL      -0.0879
     21 C21         2.4600   -3.5160   -1.2740 zk       1 MOL       0.0432
     22 C22         3.1790    2.2800   -0.4340 zl       1 MOL      -0.0432
     23 N1          1.1360   -1.4770   -1.8560 zm       1 MOL      -0.1773
     24 N2          1.8880    2.7240   -1.1570 zn       1 MOL      -0.0243
     25 O1          3.1240   -1.2630   -0.7240 o        1 MOL      -0.5478
     26 H1          8.5930    1.3700    2.1900 ha       1 MOL       0.1406
     27 H2         -2.5650   -4.5380   -4.1290 ha       1 MOL       0.1482
     28 H3          7.9960    3.7690    1.8870 ha       1 MOL       0.1564
     29 H4          7.3070   -0.3930    0.9870 ha       1 MOL       0.1564
     30 H5         -2.7660   -3.9190   -1.7250 ha       1 MOL       0.1614
     31 H6         -0.6320   -3.7180   -5.4700 ha       1 MOL       0.1614
     32 H7          6.1340    4.4110    0.3790 ha       1 MOL       0.1351
     33 H8          5.4440    0.2340   -0.5240 ha       1 MOL       0.1351
     34 H9         -1.0280   -2.4890   -0.6580 ha       1 MOL       0.1349
     35 H10         1.1050   -2.2880   -4.4040 ha       1 MOL       0.1349
     36 H11         1.8100    0.4500   -3.8170 hc       1 MOL       0.0746
     37 H12         2.9460    0.3960   -2.4920 hc       1 MOL       0.0746
     38 H13         1.4170    0.2100    0.2070 hc       1 MOL       0.0746
     39 H14        -0.3020    0.2120   -0.0870 hc       1 MOL       0.0746
     40 H15         2.7070    2.7140   -3.1420 hx       1 MOL       0.0947
     41 H16         0.9400    2.6170   -3.0720 hx       1 MOL       0.0947
     42 H17        -0.2290    2.4890   -0.9730 hx       1 MOL       0.0947
     43 H18         0.6420    2.4680    0.5700 hx       1 MOL       0.0947
     44 H19        -0.0930    0.1180   -2.4430 h1       1 MOL       0.1124
     45 H20         3.8410   -3.7210    0.4200 hc       1 MOL       0.0295
     46 H21         4.6510   -3.5920   -1.1570 hc       1 MOL       0.0295
     47 H22         3.8510   -5.1090   -0.6900 hc       1 MOL       0.0295
     48 H23         4.4650    3.8270   -1.2480 hc       1 MOL       0.0663
     49 H24         4.6170    2.2780   -2.0720 hc       1 MOL       0.0663
     50 H25         2.4140   -3.8500   -2.3180 hc       1 MOL       0.0251
     51 H26         1.6080   -3.9670   -0.7530 hc       1 MOL       0.0251
     52 H27         3.1470    2.6530    0.5930 hx       1 MOL       0.1094
     53 H28         3.1930    1.1860   -0.3840 hx       1 MOL       0.1094
     54 H29         1.8280    3.7580   -1.1280 hn       1 MOL       0.2539
@<TRIPOS>BOND
     1     1     3    2
     2     1     4    1
     3     1    26    1
     4     2     5    2
     5     2     6    1
     6     2    27    1
     7     3     7    1
     8     3    28    1
     9     4     8    2
    10     4    29    1
    11     5     9    1
    12     5    30    1
    13     6    10    2
    14     6    31    1
    15     7    11    2
    16     7    32    1
    17     8    11    1
    18     8    33    1
    19     9    12    2
    20     9    34    1
    21    10    12    1
    22    10    35    1
    23    11    20    1
    24    12    23    1
    25    13    21    1
    26    13    23    1
    27    13    25    2
    28    14    16    1
    29    14    18    1
    30    14    36    1
    31    14    37    1
    32    15    17    1
    33    15    18    1
    34    15    38    1
    35    15    39    1
    36    16    24    1
    37    16    40    1
    38    16    41    1
    39    17    24    1
    40    17    42    1
    41    17    43    1
    42    18    23    1
    43    18    44    1
    44    19    21    1
    45    19    45    1
    46    19    46    1
    47    19    47    1
    48    20    22    1
    49    20    48    1
    50    20    49    1
    51    21    50    1
    52    21    51    1
    53    22    24    1
    54    22    52    1
    55    22    53    1
    56    24    54    1
