@<TRIPOS>MOLECULE
    MOL
   54    56     0     0     0
SMALL
USER_CHARGES

@<TRIPOS>ATOM
      1 C1          7.8014    1.6523    1.4961 ca       1 MOL      -0.0752
      2 C2         -1.8188   -3.8870   -3.6944 ca       1 MOL      -0.0811
      3 C3          7.4294    3.0002    1.3700 ca       1 MOL      -0.1596
      4 C4          7.1052    0.6642    0.7824 ca       1 MOL      -0.1596
      5 C5         -1.9063   -3.5865   -2.3254 ca       1 MOL      -0.1763
      6 C6         -0.7441   -3.3945   -4.4525 ca       1 MOL      -0.1763
      7 C7          6.3629    3.3606    0.5289 za       1 MOL      -0.1416
      8 C8          6.0403    1.0238   -0.0600 za       1 MOL      -0.1416
      9 C9         -0.9151   -2.8021   -1.7126 zb       1 MOL      -0.0994
     10 C10         0.2477   -2.6104   -3.8403 zb       1 MOL      -0.0994
     11 C11         5.6689    2.3743   -0.1966 zc       1 MOL       0.0246
     12 C12         0.1780   -2.3353   -2.4634 zd       1 MOL      -0.0144
     13 C13         2.3076   -1.9993   -1.2445 ze       1 MOL       0.4749
     14 C14         1.9335    0.7200   -2.7696 zf       1 MOL      -0.0370
     15 C15         0.6507    0.5630   -0.4897 zf       1 MOL      -0.0370
     16 C16         1.8632    2.2558   -2.6059 zg       1 MOL      -0.0714
     17 C17         0.6717    2.1106   -0.4697 zg       1 MOL      -0.0714
     18 C18         0.8594   -0.0356   -1.9198 zh       1 MOL      -0.0336
     19 C19         3.7523   -4.0295   -0.5413 zi       1 MOL      -0.0851
     20 C20         4.4942    2.7477   -1.0849 zj       1 MOL      -0.0879
     21 C21         2.4642   -3.5364   -1.2429 zk       1 MOL       0.0432
     22 C22         3.1687    2.2982   -0.4326 zl       1 MOL      -0.0432
     23 N1          1.1471   -1.4939   -1.8582 zm       1 MOL      -0.1773
     24 N2          1.8858    2.7280   -1.1547 zn       1 MOL      -0.0243
     25 O1          3.1449   -1.2666   -0.7368 o        1 MOL      -0.5478
     26 H1          8.6275    1.3737    2.1468 ha       1 MOL       0.1406
     27 H2         -2.5856   -4.4964   -4.1683 ha       1 MOL       0.1482
     28 H3          7.9705    3.7643    1.9236 ha       1 MOL       0.1564
     29 H4          7.3911   -0.3804    0.8830 ha       1 MOL       0.1564
     30 H5         -2.7434   -3.9623   -1.7412 ha       1 MOL       0.1614
     31 H6         -0.6817   -3.6220   -5.5143 ha       1 MOL       0.1614
     32 H7          6.0846    4.4072    0.4400 ha       1 MOL       0.1351
     33 H8          5.5042    0.2489   -0.6034 ha       1 MOL       0.1351
     34 H9         -0.9908   -2.5681   -0.6539 ha       1 MOL       0.1349
     35 H10         1.0747   -2.2283   -4.4328 ha       1 MOL       0.1349
     36 H11         1.8022    0.4607   -3.8284 hc       1 MOL       0.0746
     37 H12         2.9463    0.3917   -2.5112 hc       1 MOL       0.0746
     38 H13         1.4115    0.1951    0.2080 hc       1 MOL       0.0746
     39 H14        -0.3080    0.2078   -0.0891 hc       1 MOL       0.0746
     40 H15         2.7029    2.7207   -3.1273 hx       1 MOL       0.0947
     41 H16         0.9370    2.6224   -3.0543 hx       1 MOL       0.0947
     42 H17        -0.2175    2.4877   -0.9799 hx       1 MOL       0.0947
     43 H18         0.6503    2.4643    0.5639 hx       1 MOL       0.0947
     44 H19        -0.0960    0.0940   -2.4487 h1       1 MOL       0.1124
     45 H20         3.7679   -3.7171    0.5107 hc       1 MOL       0.0295
     46 H21         4.6449   -3.6246   -1.0349 hc       1 MOL       0.0295
     47 H22         3.8122   -5.1246   -0.5730 hc       1 MOL       0.0295
     48 H23         4.4758    3.8316   -1.2559 hc       1 MOL       0.0663
     49 H24         4.6178    2.2750   -2.0674 hc       1 MOL       0.0663
     50 H25         2.4600   -3.8926   -2.2807 hc       1 MOL       0.0251
     51 H26         1.5926   -3.9801   -0.7455 hc       1 MOL       0.0251
     52 H27         3.1224    2.6891    0.5864 hx       1 MOL       0.1094
     53 H28         3.1706    1.2065   -0.3701 hx       1 MOL       0.1094
     54 H29         1.8140    3.7590   -1.1278 hn       1 MOL       0.2539
@<TRIPOS>BOND
     1     1     3    2
     2     1     4    1
     3     1    26    1
     4     2     5    2
     5     2     6    1
     6     2    27    1
     7     3     7    1
     8     3    28    1
     9     4     8    2
    10     4    29    1
    11     5     9    1
    12     5    30    1
    13     6    10    2
    14     6    31    1
    15     7    11    2
    16     7    32    1
    17     8    11    1
    18     8    33    1
    19     9    12    2
    20     9    34    1
    21    10    12    1
    22    10    35    1
    23    11    20    1
    24    12    23    1
    25    13    21    1
    26    13    23    1
    27    13    25    2
    28    14    16    1
    29    14    18    1
    30    14    36    1
    31    14    37    1
    32    15    17    1
    33    15    18    1
    34    15    38    1
    35    15    39    1
    36    16    24    1
    37    16    40    1
    38    16    41    1
    39    17    24    1
    40    17    42    1
    41    17    43    1
    42    18    23    1
    43    18    44    1
    44    19    21    1
    45    19    45    1
    46    19    46    1
    47    19    47    1
    48    20    22    1
    49    20    48    1
    50    20    49    1
    51    21    50    1
    52    21    51    1
    53    22    24    1
    54    22    52    1
    55    22    53    1
    56    24    54    1
