@<TRIPOS>MOLECULE
    MOL
   44    46     0     0     0
SMALL
USER_CHARGES

@<TRIPOS>ATOM
      1 C1         -4.1290   -6.6460   -2.8500 ca       1 MOL      -0.0538
      2 C2         -4.2480   -5.3780   -3.4310 ca       1 MOL      -0.2070
      3 C3         -2.9700   -6.9710   -2.1370 ca       1 MOL      -0.2070
      4 C4         -3.2110   -4.4400   -3.3010 za       1 MOL      -0.1034
      5 C5         -1.9310   -6.0350   -2.0060 za       1 MOL      -0.1034
      6 C6         -2.0250   -4.7440   -2.5880 zb       1 MOL       0.0968
      7 C7          1.2400   -4.6620   -4.4930 c3       1 MOL      -0.0198
      8 C8         -0.0790   -3.9990   -4.9380 c3       1 MOL      -0.0232
      9 C9          1.0990   -5.3110   -3.1000 c3       1 MOL      -0.0232
     10 C10        -3.1000   -1.2220    0.5190 c3       1 MOL      -0.0343
     11 C11        -2.6470   -0.5630   -0.8070 c3       1 MOL      -0.0626
     12 C12        -2.0860   -2.2900    0.9970 c3       1 MOL      -0.0626
     13 C13        -0.6050   -3.0120   -3.8650 c3       1 MOL      -0.0793
     14 C14         0.4950   -4.3260   -2.0570 c3       1 MOL      -0.0793
     15 C15        -2.3120   -1.6250   -1.8760 zc       1 MOL      -0.0540
     16 C16        -1.7660   -3.2990   -0.1250 zc       1 MOL      -0.0540
     17 C17        -0.8790   -3.6850   -2.4710 zd       1 MOL       0.0197
     18 N1         -1.2510   -2.6320   -1.4100 ze       1 MOL      -0.0468
     19 H1         -4.9300   -7.3740   -2.9560 ha       1 MOL       0.1558
     20 H2         -5.1450   -5.1230   -3.9900 ha       1 MOL       0.1714
     21 H3         -2.8740   -7.9560   -1.6840 ha       1 MOL       0.1714
     22 H4         -3.3510   -3.4740   -3.7730 ha       1 MOL       0.1288
     23 H5         -1.0630   -6.3410   -1.4330 ha       1 MOL       0.1288
     24 H6          1.5440   -5.4190   -5.2280 hc       1 MOL       0.0333
     25 H7          2.0390   -3.9080   -4.4670 hc       1 MOL       0.0333
     26 H8          0.0800   -3.4680   -5.8860 hc       1 MOL       0.0366
     27 H9         -0.8330   -4.7730   -5.1350 hc       1 MOL       0.0366
     28 H10         0.4750   -6.2090   -3.1890 hc       1 MOL       0.0366
     29 H11         2.0840   -5.6530   -2.7570 hc       1 MOL       0.0366
     30 H12        -3.2290   -0.4540    1.2940 hc       1 MOL       0.0544
     31 H13        -4.0830   -1.6920    0.3760 hc       1 MOL       0.0544
     32 H14        -3.4370    0.1020   -1.1810 hc       1 MOL       0.0537
     33 H15        -1.7640    0.0640   -0.6250 hc       1 MOL       0.0537
     34 H16        -1.1600   -1.8000    1.3240 hc       1 MOL       0.0537
     35 H17        -2.4890   -2.8220    1.8690 hc       1 MOL       0.0537
     36 H18         0.1380   -2.2140   -3.7360 hc       1 MOL       0.0427
     37 H19        -1.4950   -2.5170   -4.2640 hc       1 MOL       0.0427
     38 H20         0.4250   -4.8200   -1.0820 hc       1 MOL       0.0427
     39 H21         1.2220   -3.5160   -1.9080 hc       1 MOL       0.0427
     40 H22        -3.2200   -2.1820   -2.1200 hx       1 MOL       0.0907
     41 H23        -1.9540   -1.1270   -2.7800 hx       1 MOL       0.0907
     42 H24        -1.0140   -4.0110    0.2260 hx       1 MOL       0.0907
     43 H25        -2.6710   -3.8600   -0.3770 hx       1 MOL       0.0907
     44 H26        -0.3900   -2.1080   -1.1880 hn       1 MOL       0.2707
@<TRIPOS>BOND
     1     1     2    2
     2     1     3    1
     3     1    19    1
     4     2     4    1
     5     2    20    1
     6     3     5    2
     7     3    21    1
     8     4     6    2
     9     4    22    1
    10     5     6    1
    11     5    23    1
    12     6    17    1
    13     7     8    1
    14     7     9    1
    15     7    24    1
    16     7    25    1
    17     8    13    1
    18     8    26    1
    19     8    27    1
    20     9    14    1
    21     9    28    1
    22     9    29    1
    23    10    11    1
    24    10    12    1
    25    10    30    1
    26    10    31    1
    27    11    15    1
    28    11    32    1
    29    11    33    1
    30    12    16    1
    31    12    34    1
    32    12    35    1
    33    13    17    1
    34    13    36    1
    35    13    37    1
    36    14    17    1
    37    14    38    1
    38    14    39    1
    39    15    18    1
    40    15    40    1
    41    15    41    1
    42    16    18    1
    43    16    42    1
    44    16    43    1
    45    17    18    1
    46    18    44    1
