@<TRIPOS>MOLECULE
    MOL
   44    46     0     0     0
SMALL
USER_CHARGES

@<TRIPOS>ATOM
      1 C1         -4.1491   -6.6269   -2.8852 ca       1 MOL      -0.0538
      2 C2         -4.2485   -5.3614   -3.4744 ca       1 MOL      -0.2070
      3 C3         -3.0018   -6.9580   -2.1551 ca       1 MOL      -0.2070
      4 C4         -3.2044   -4.4321   -3.3380 za       1 MOL      -0.1034
      5 C5         -1.9552   -6.0312   -2.0169 za       1 MOL      -0.1034
      6 C6         -2.0309   -4.7433   -2.6068 zb       1 MOL       0.0968
      7 C7          1.2448   -4.6785   -4.4859 c3       1 MOL      -0.0198
      8 C8         -0.0629   -3.9970   -4.9364 c3       1 MOL      -0.0232
      9 C9          1.0881   -5.3313   -3.0974 c3       1 MOL      -0.0232
     10 C10        -3.0965   -1.2305    0.5433 c3       1 MOL      -0.0343
     11 C11        -2.7078   -0.5858   -0.8087 c3       1 MOL      -0.0626
     12 C12        -2.0317   -2.2491    1.0158 c3       1 MOL      -0.0626
     13 C13        -0.5864   -3.0109   -3.8620 c3       1 MOL      -0.0793
     14 C14         0.4917   -4.3456   -2.0517 c3       1 MOL      -0.0793
     15 C15        -2.3575   -1.6629   -1.8603 zc       1 MOL      -0.0540
     16 C16        -1.7017   -3.2689   -0.0972 zc       1 MOL      -0.0540
     17 C17        -0.8782   -3.6885   -2.4695 zd       1 MOL       0.0197
     18 N1         -1.2491   -2.6205   -1.4106 ze       1 MOL      -0.0468
     19 H1         -4.9566   -7.3492   -2.9958 ha       1 MOL       0.1558
     20 H2         -5.1378   -5.1035   -4.0468 ha       1 MOL       0.1714
     21 H3         -2.9221   -7.9419   -1.6962 ha       1 MOL       0.1714
     22 H4         -3.3277   -3.4675   -3.8173 ha       1 MOL       0.1288
     23 H5         -1.0972   -6.3393   -1.4305 ha       1 MOL       0.1288
     24 H6          1.5445   -5.4355   -5.2223 hc       1 MOL       0.0333
     25 H7          2.0502   -3.9333   -4.4497 hc       1 MOL       0.0333
     26 H8          0.1133   -3.4583   -5.8766 hc       1 MOL       0.0366
     27 H9         -0.8228   -4.7604   -5.1489 hc       1 MOL       0.0366
     28 H10         0.4566   -6.2227   -3.1921 hc       1 MOL       0.0366
     29 H11         2.0684   -5.6836   -2.7507 hc       1 MOL       0.0366
     30 H12        -3.2302   -0.4500    1.3044 hc       1 MOL       0.0544
     31 H13        -4.0647   -1.7387    0.4391 hc       1 MOL       0.0544
     32 H14        -3.5351    0.0366   -1.1748 hc       1 MOL       0.0537
     33 H15        -1.8470    0.0804   -0.6644 hc       1 MOL       0.0537
     34 H16        -1.1173   -1.7158    1.3073 hc       1 MOL       0.0537
     35 H17        -2.3921   -2.7766    1.9089 hc       1 MOL       0.0537
     36 H18         0.1648   -2.2215   -3.7244 hc       1 MOL       0.0427
     37 H19        -1.4668   -2.5006   -4.2659 hc       1 MOL       0.0427
     38 H20         0.4165   -4.8466   -1.0798 hc       1 MOL       0.0427
     39 H21         1.2267   -3.5447   -1.8954 hc       1 MOL       0.0427
     40 H22        -3.2475   -2.2603   -2.0658 hx       1 MOL       0.0907
     41 H23        -2.0373   -1.1757   -2.7832 hx       1 MOL       0.0907
     42 H24        -0.9092   -3.9371    0.2449 hx       1 MOL       0.0907
     43 H25        -2.5899   -3.8675   -0.3123 hx       1 MOL       0.0907
     44 H26        -0.4027   -2.0594   -1.2238 hn       1 MOL       0.2707
@<TRIPOS>BOND
     1     1     2    2
     2     1     3    1
     3     1    19    1
     4     2     4    1
     5     2    20    1
     6     3     5    2
     7     3    21    1
     8     4     6    2
     9     4    22    1
    10     5     6    1
    11     5    23    1
    12     6    17    1
    13     7     8    1
    14     7     9    1
    15     7    24    1
    16     7    25    1
    17     8    13    1
    18     8    26    1
    19     8    27    1
    20     9    14    1
    21     9    28    1
    22     9    29    1
    23    10    11    1
    24    10    12    1
    25    10    30    1
    26    10    31    1
    27    11    15    1
    28    11    32    1
    29    11    33    1
    30    12    16    1
    31    12    34    1
    32    12    35    1
    33    13    17    1
    34    13    36    1
    35    13    37    1
    36    14    17    1
    37    14    38    1
    38    14    39    1
    39    15    18    1
    40    15    40    1
    41    15    41    1
    42    16    18    1
    43    16    42    1
    44    16    43    1
    45    17    18    1
    46    18    44    1
