@<TRIPOS>MOLECULE
    MOL
   41    45     0     0     0
SMALL
USER_CHARGES

@<TRIPOS>ATOM
      1 C1         -0.0750   -1.0530   -0.1990 ca       1 MOL      -0.1599
      2 C2         -0.9460   -1.4320   -1.2550 ca       1 MOL      -0.3897
      3 C3          0.6460   -2.0340    0.5170 ca       1 MOL       0.0246
      4 C4          0.4460   -3.3630    0.1570 ca       1 MOL      -0.2220
      5 C5         -0.3350   -3.7370   -0.9050 za       1 MOL       0.3446
      6 C6         -1.0690   -2.7880   -1.6330 zb       1 MOL       0.2842
      7 C7          2.2360   -5.3940   -1.4380 c        1 MOL       0.4708
      8 C8          1.7140   -1.7020    1.5600 c3       1 MOL       0.0010
      9 C9          3.5930   -5.1290   -0.7830 c3       1 MOL      -0.0177
     10 C10         3.5270   -3.9060    0.1620 c3       1 MOL      -0.2155
     11 C11         0.2170   -5.0550    1.9360 c3       1 MOL      -0.0485
     12 C12         0.1120   -3.9690    3.0330 c3       1 MOL      -0.1257
     13 C13         1.0200   -5.5250   -0.4840 c3       1 MOL       0.0635
     14 C14         2.5070   -4.1660    1.2980 c3       1 MOL       0.0021
     15 C15         2.3090   -2.9680    2.2910 c3       1 MOL      -0.0849
     16 C16         1.1030   -4.5580    0.7570 c3       1 MOL      -0.0260
     17 C17         1.3100   -2.3630    4.5740 c3       1 MOL      -0.4080
     18 N1          1.4830   -3.4550    3.5030 nx       1 MOL      -0.0450
     19 O1          2.1270   -5.3990   -2.6500 o        1 MOL      -0.4507
     20 O2         -0.1870   -5.0730   -1.1800 os       1 MOL      -0.3533
     21 O3         -1.8520   -3.1560   -2.6890 zc       1 MOL      -0.5596
     22 H1          0.0540    0.0010    0.0380 ha       1 MOL       0.1693
     23 H2         -1.4880   -0.6640   -1.7990 ha       1 MOL       0.2268
     24 H3          2.5370   -1.1870    1.0500 hc       1 MOL       0.0666
     25 H4          1.3230   -0.9770    2.2810 hc       1 MOL       0.0666
     26 H5          3.9020   -6.0290   -0.2380 hc       1 MOL       0.0449
     27 H6          4.3320   -4.9550   -1.5770 hc       1 MOL       0.0449
     28 H7          4.5210   -3.7090    0.5850 hc       1 MOL       0.1133
     29 H8          3.2450   -3.0180   -0.4210 hc       1 MOL       0.1133
     30 H9          0.6350   -5.9770    2.3590 hc       1 MOL       0.0699
     31 H10        -0.7910   -5.3010    1.5730 hc       1 MOL       0.0699
     32 H11        -0.4450   -3.1190    2.6280 hx       1 MOL       0.1445
     33 H12        -0.4380   -4.3610    3.8940 hx       1 MOL       0.1445
     34 H13         0.9390   -6.5760   -0.1860 h1       1 MOL       0.1307
     35 H14         2.8970   -5.0130    1.8780 hc       1 MOL       0.0472
     36 H15         3.2910   -2.6860    2.6790 hx       1 MOL       0.1279
     37 H16         0.7040   -1.5480    4.1690 hx       1 MOL       0.1909
     38 H17         0.8050   -2.7880    5.4460 hx       1 MOL       0.1909
     39 H18         2.2910   -1.9820    4.8690 hx       1 MOL       0.1909
     40 H19         1.9940   -4.2520    3.9230 hn       1 MOL       0.3168
     41 H20        -2.2210   -2.3650   -3.1140 zd       1 MOL       0.4456
@<TRIPOS>BOND
     1     1     2    1
     2     1     3    2
     3     1    22    1
     4     2     6    2
     5     2    23    1
     6     3     4    1
     7     3     8    1
     8     4     5    2
     9     4    16    1
    10     5     6    1
    11     5    20    1
    12     6    21    1
    13     7     9    1
    14     7    13    1
    15     7    19    2
    16     8    15    1
    17     8    24    1
    18     8    25    1
    19     9    10    1
    20     9    26    1
    21     9    27    1
    22    10    14    1
    23    10    28    1
    24    10    29    1
    25    11    12    1
    26    11    16    1
    27    11    30    1
    28    11    31    1
    29    12    18    1
    30    12    32    1
    31    12    33    1
    32    13    16    1
    33    13    20    1
    34    13    34    1
    35    14    15    1
    36    14    16    1
    37    14    35    1
    38    15    18    1
    39    15    36    1
    40    17    18    1
    41    17    37    1
    42    17    38    1
    43    17    39    1
    44    18    40    1
    45    21    41    1
