@<TRIPOS>MOLECULE
    MOL
   41    45     0     0     0
SMALL
USER_CHARGES

@<TRIPOS>ATOM
      1 C1         -0.0712   -1.0554   -0.2021 ca       1 MOL      -0.1599
      2 C2         -0.9498   -1.4271   -1.2566 ca       1 MOL      -0.3897
      3 C3          0.6488   -2.0389    0.5113 ca       1 MOL       0.0246
      4 C4          0.4455   -3.3699    0.1576 ca       1 MOL      -0.2220
      5 C5         -0.3393   -3.7414   -0.9080 za       1 MOL       0.3446
      6 C6         -1.0765   -2.7824   -1.6358 zb       1 MOL       0.2842
      7 C7          2.2350   -5.3871   -1.4413 c        1 MOL       0.4708
      8 C8          1.7166   -1.7067    1.5544 c3       1 MOL       0.0010
      9 C9          3.5951   -5.1321   -0.7824 c3       1 MOL      -0.0177
     10 C10         3.5334   -3.9118    0.1716 c3       1 MOL      -0.2155
     11 C11         0.2230   -5.0674    1.9409 c3       1 MOL      -0.0485
     12 C12         0.1280   -3.9833    3.0473 c3       1 MOL      -0.1257
     13 C13         1.0220   -5.5313   -0.4824 c3       1 MOL       0.0635
     14 C14         2.5095   -4.1731    1.3018 c3       1 MOL       0.0021
     15 C15         2.3076   -2.9747    2.2933 c3       1 MOL      -0.0849
     16 C16         1.1044   -4.5652    0.7590 c3       1 MOL      -0.0260
     17 C17         1.2867   -2.3518    4.5422 c3       1 MOL      -0.4080
     18 N1          1.4887   -3.4596    3.5069 nx       1 MOL      -0.0450
     19 O1          2.1133   -5.3559   -2.6524 o        1 MOL      -0.4507
     20 O2         -0.1947   -5.0831   -1.1689 os       1 MOL      -0.3533
     21 O3         -1.8734   -3.1231   -2.6873 zc       1 MOL      -0.5596
     22 H1          0.0664   -0.0022    0.0388 ha       1 MOL       0.1693
     23 H2         -1.4928   -0.6569   -1.7991 ha       1 MOL       0.2268
     24 H3          2.5414   -1.1949    1.0421 hc       1 MOL       0.0666
     25 H4          1.3274   -0.9737    2.2695 hc       1 MOL       0.0666
     26 H5          3.8961   -6.0337   -0.2339 hc       1 MOL       0.0449
     27 H6          4.3439   -4.9598   -1.5668 hc       1 MOL       0.0449
     28 H7          4.5297   -3.7241    0.5941 hc       1 MOL       0.1133
     29 H8          3.2597   -3.0214   -0.4114 hc       1 MOL       0.1133
     30 H9          0.6466   -5.9910    2.3570 hc       1 MOL       0.0699
     31 H10        -0.7866   -5.3168    1.5850 hc       1 MOL       0.0699
     32 H11        -0.4350   -3.1336    2.6527 hx       1 MOL       0.1445
     33 H12        -0.4083   -4.3772    3.9143 hx       1 MOL       0.1445
     34 H13         0.9512   -6.5853   -0.1881 h1       1 MOL       0.1307
     35 H14         2.8979   -5.0221    1.8814 hc       1 MOL       0.0472
     36 H15         3.2877   -2.6924    2.6854 hx       1 MOL       0.1279
     37 H16         0.6568   -1.5649    4.1201 hx       1 MOL       0.1909
     38 H17         0.7969   -2.7644    5.4291 hx       1 MOL       0.1909
     39 H18         2.2566   -1.9331    4.8258 hx       1 MOL       0.1909
     40 H19         2.0073   -4.2492    3.9363 hn       1 MOL       0.3168
     41 H20        -2.2226   -2.3130   -3.0927 zd       1 MOL       0.4456
@<TRIPOS>BOND
     1     1     2    1
     2     1     3    2
     3     1    22    1
     4     2     6    2
     5     2    23    1
     6     3     4    1
     7     3     8    1
     8     4     5    2
     9     4    16    1
    10     5     6    1
    11     5    20    1
    12     6    21    1
    13     7     9    1
    14     7    13    1
    15     7    19    2
    16     8    15    1
    17     8    24    1
    18     8    25    1
    19     9    10    1
    20     9    26    1
    21     9    27    1
    22    10    14    1
    23    10    28    1
    24    10    29    1
    25    11    12    1
    26    11    16    1
    27    11    30    1
    28    11    31    1
    29    12    18    1
    30    12    32    1
    31    12    33    1
    32    13    16    1
    33    13    20    1
    34    13    34    1
    35    14    15    1
    36    14    16    1
    37    14    35    1
    38    15    18    1
    39    15    36    1
    40    17    18    1
    41    17    37    1
    42    17    38    1
    43    17    39    1
    44    18    40    1
    45    21    41    1
