@<TRIPOS>MOLECULE
    MOL
   27    27     0     0     0
SMALL
USER_CHARGES

@<TRIPOS>ATOM
      1 C1          2.8010   -1.6480   -6.1860 ca       1 MOL      -0.0899
      2 C2          2.1160   -0.4720   -5.8440 ca       1 MOL      -0.1627
      3 C3          2.8170   -2.7320   -5.2950 ca       1 MOL      -0.1627
      4 C4          1.4480   -0.3780   -4.6120 za       1 MOL      -0.1140
      5 C5          2.1490   -2.6400   -4.0630 za       1 MOL      -0.1140
      6 C6          1.4590   -1.4630   -3.7150 zb       1 MOL       0.0174
      7 C7          2.9110   -1.2570   -1.0420 c3       1 MOL      -0.2953
      8 C8         -0.3720    0.6710   -0.2280 zc       1 MOL      -0.1956
      9 C9          0.7410   -1.3550   -2.3760 zd       1 MOL      -0.1142
     10 C10         1.5610   -0.5620   -1.3220 ze       1 MOL       0.0660
     11 N1          0.7940   -0.3210   -0.0250 zf       1 MOL      -0.2185
     12 H1          3.3140   -1.7220   -7.1430 ha       1 MOL       0.1514
     13 H2          2.1000    0.3660   -6.5380 ha       1 MOL       0.1608
     14 H3          3.3420   -3.6460   -5.5630 ha       1 MOL       0.1608
     15 H4          0.9150    0.5360   -4.3650 ha       1 MOL       0.1230
     16 H5          2.1650   -3.4910   -3.3860 ha       1 MOL       0.1230
     17 H6          2.7660   -2.2810   -0.6740 hc       1 MOL       0.1098
     18 H7          3.5220   -1.3110   -1.9540 hc       1 MOL       0.1098
     19 H8          3.4940   -0.7020   -0.2970 hc       1 MOL       0.1098
     20 H9         -1.0940    0.2520   -0.9360 hx       1 MOL       0.1431
     21 H10        -0.8720    0.8530    0.7290 hx       1 MOL       0.1431
     22 H11         0.0140    1.6160   -0.6210 hx       1 MOL       0.1431
     23 H12         0.5120   -2.3570   -1.9890 hc       1 MOL       0.0771
     24 H13        -0.2280   -0.8690   -2.5390 hc       1 MOL       0.0771
     25 H14         1.7860    0.4190   -1.7560 hx       1 MOL       0.1265
     26 H15         1.4440    0.0460    0.6920 hn       1 MOL       0.3125
     27 H16         0.4480   -1.2230    0.3450 hn       1 MOL       0.3125
@<TRIPOS>BOND
     1     1     2    2
     2     1     3    1
     3     1    12    1
     4     2     4    1
     5     2    13    1
     6     3     5    2
     7     3    14    1
     8     4     6    2
     9     4    15    1
    10     5     6    1
    11     5    16    1
    12     6     9    1
    13     7    10    1
    14     7    17    1
    15     7    18    1
    16     7    19    1
    17     8    11    1
    18     8    20    1
    19     8    21    1
    20     8    22    1
    21     9    10    1
    22     9    23    1
    23     9    24    1
    24    10    11    1
    25    10    25    1
    26    11    26    1
    27    11    27    1
