@<TRIPOS>MOLECULE
    MOL
   27    27     0     0     0
SMALL
USER_CHARGES

@<TRIPOS>ATOM
      1 C1          2.8164   -1.6495   -6.1720 ca       1 MOL      -0.0899
      2 C2          2.1167   -0.4763   -5.8487 ca       1 MOL      -0.1627
      3 C3          2.8317   -2.7257   -5.2709 ca       1 MOL      -0.1627
      4 C4          1.4295   -0.3804   -4.6271 za       1 MOL      -0.1140
      5 C5          2.1445   -2.6306   -4.0495 za       1 MOL      -0.1140
      6 C6          1.4295   -1.4615   -3.7259 zb       1 MOL       0.0174
      7 C7          2.9024   -1.2693   -1.0622 c3       1 MOL      -0.2953
      8 C8         -0.3690    0.6565   -0.2180 zc       1 MOL      -0.1956
      9 C9          0.7203   -1.3349   -2.3827 zd       1 MOL      -0.1142
     10 C10         1.5570   -0.5562   -1.3277 ze       1 MOL       0.0660
     11 N1          0.8073   -0.3170   -0.0241 zf       1 MOL      -0.2185
     12 H1          3.3452   -1.7252   -7.1201 ha       1 MOL       0.1514
     13 H2          2.1056    0.3565   -6.5488 ha       1 MOL       0.1608
     14 H3          3.3741   -3.6347   -5.5227 ha       1 MOL       0.1608
     15 H4          0.8913    0.5329   -4.3893 ha       1 MOL       0.1230
     16 H5          2.1645   -3.4706   -3.3603 ha       1 MOL       0.1230
     17 H6          2.7554   -2.3004   -0.7138 hc       1 MOL       0.1098
     18 H7          3.5134   -1.3117   -1.9747 hc       1 MOL       0.1098
     19 H8          3.4987   -0.7357   -0.3104 hc       1 MOL       0.1098
     20 H9         -1.0950    0.2225   -0.9113 hx       1 MOL       0.1431
     21 H10        -0.8552    0.8379    0.7457 hx       1 MOL       0.1431
     22 H11         0.0024    1.6033   -0.6212 hx       1 MOL       0.1431
     23 H12         0.4735   -2.3329   -1.9972 hc       1 MOL       0.0771
     24 H13        -0.2409   -0.8326   -2.5473 hc       1 MOL       0.0771
     25 H14         1.7833    0.4296   -1.7480 hx       1 MOL       0.1265
     26 H15         1.4693    0.0591    0.6753 hn       1 MOL       0.3125
     27 H16         0.4808   -1.2237    0.3499 hn       1 MOL       0.3125
@<TRIPOS>BOND
     1     1     2    2
     2     1     3    1
     3     1    12    1
     4     2     4    1
     5     2    13    1
     6     3     5    2
     7     3    14    1
     8     4     6    2
     9     4    15    1
    10     5     6    1
    11     5    16    1
    12     6     9    1
    13     7    10    1
    14     7    17    1
    15     7    18    1
    16     7    19    1
    17     8    11    1
    18     8    20    1
    19     8    21    1
    20     8    22    1
    21     9    10    1
    22     9    23    1
    23     9    24    1
    24    10    11    1
    25    10    25    1
    26    11    26    1
    27    11    27    1
