@<TRIPOS>MOLECULE
    MOL
   31    32     0     0     0
SMALL
USER_CHARGES

@<TRIPOS>ATOM
      1 C1          7.5870   39.0260   29.9020 c3       1 MOL      -0.0476
      2 C2          8.5350   40.1230   30.4600 c3       1 MOL      -0.0907
      3 C3          8.9230   37.2810   31.0770 c3       1 MOL      -0.4020
      4 C4          8.5570   37.8310   29.6660 c3       1 MOL      -0.0161
      5 C5          9.9190   38.3460   31.6150 za       1 MOL       0.0502
      6 C6          9.9290   39.4100   30.4700 zb       1 MOL       0.0192
      7 C7          9.8690   38.5140   29.1920 c3       1 MOL       0.2217
      8 C8         11.1260   40.3920   30.5450 c3       1 MOL      -0.2264
      9 C9         11.0750   37.5250   29.0120 c3       1 MOL      -0.1174
     10 C10         9.7320   39.2870   27.8330 c3       1 MOL      -0.1174
     11 N1          9.5800   38.8870   32.9930 zc       1 MOL      -0.4413
     12 H1          6.7830   38.7780   30.6070 hc       1 MOL       0.0424
     13 H2          7.1120   39.3470   28.9640 hc       1 MOL       0.0424
     14 H3          8.5390   41.0060   29.8070 hc       1 MOL       0.0513
     15 H4          8.2180   40.4650   31.4520 hc       1 MOL       0.0513
     16 H5          8.0350   37.1750   31.7140 hc       1 MOL       0.1472
     17 H6          9.3990   36.2940   31.0070 hc       1 MOL       0.1472
     18 H7          8.1610   37.0700   28.9780 hc       1 MOL       0.0713
     19 H8         10.9160   37.8940   31.6670 hx       1 MOL       0.1278
     20 H9         12.0820   39.8530   30.5500 hc       1 MOL       0.0692
     21 H10        11.0760   41.0060   31.4530 hc       1 MOL       0.0692
     22 H11        11.1290   41.0740   29.6850 hc       1 MOL       0.0692
     23 H12        11.9860   38.0730   28.7350 hc       1 MOL       0.0418
     24 H13        10.8660   36.8160   28.1990 hc       1 MOL       0.0418
     25 H14        11.3170   36.9310   29.8990 hc       1 MOL       0.0418
     26 H15        10.6760   39.7840   27.5730 hc       1 MOL       0.0418
     27 H16         8.9560   40.0590   27.8230 hc       1 MOL       0.0418
     28 H17         9.4980   38.5880   27.0190 hc       1 MOL       0.0418
     29 H18         9.6000   38.1440   33.7070 zd       1 MOL       0.3428
     30 H19         8.6340   39.2950   32.9900 zd       1 MOL       0.3428
     31 H20        10.2400   39.6280   33.2720 zd       1 MOL       0.3428
@<TRIPOS>BOND
     1     1     2    1
     2     1     4    1
     3     1    12    1
     4     1    13    1
     5     2     6    1
     6     2    14    1
     7     2    15    1
     8     3     4    1
     9     3     5    1
    10     3    16    1
    11     3    17    1
    12     4     7    1
    13     4    18    1
    14     5     6    1
    15     5    11    1
    16     5    19    1
    17     6     7    1
    18     6     8    1
    19     7     9    1
    20     7    10    1
    21     8    20    1
    22     8    21    1
    23     8    22    1
    24     9    23    1
    25     9    24    1
    26     9    25    1
    27    10    26    1
    28    10    27    1
    29    10    28    1
    30    11    29    1
    31    11    30    1
    32    11    31    1
