@<TRIPOS>MOLECULE
    MOL
   31    32     0     0     0
SMALL
USER_CHARGES

@<TRIPOS>ATOM
      1 C1          7.5889   39.0294   29.9021 c3       1 MOL      -0.0476
      2 C2          8.5385   40.1283   30.4540 c3       1 MOL      -0.0907
      3 C3          8.9208   37.2901   31.0896 c3       1 MOL      -0.4020
      4 C4          8.5578   37.8327   29.6694 c3       1 MOL      -0.0161
      5 C5          9.9213   38.3519   31.6138 za       1 MOL       0.0502
      6 C6          9.9325   39.4139   30.4606 zb       1 MOL       0.0192
      7 C7          9.8711   38.5132   29.1800 c3       1 MOL       0.2217
      8 C8         11.1259   40.3972   30.5518 c3       1 MOL      -0.2264
      9 C9         11.0755   37.5235   29.0076 c3       1 MOL      -0.1174
     10 C10         9.7308   39.2830   27.8212 c3       1 MOL      -0.1174
     11 N1          9.5804   38.8763   32.9923 zc       1 MOL      -0.4413
     12 H1          6.7897   38.7847   30.6141 hc       1 MOL       0.0424
     13 H2          7.1107   39.3463   28.9658 hc       1 MOL       0.0424
     14 H3          8.5403   41.0102   29.7996 hc       1 MOL       0.0513
     15 H4          8.2264   40.4690   31.4482 hc       1 MOL       0.0513
     16 H5          8.0265   37.1804   31.7194 hc       1 MOL       0.1472
     17 H6          9.3882   36.2965   31.0206 hc       1 MOL       0.1472
     18 H7          8.1580   37.0702   28.9862 hc       1 MOL       0.0713
     19 H8         10.9204   37.9046   31.6705 hx       1 MOL       0.1278
     20 H9         12.0839   39.8613   30.5651 hc       1 MOL       0.0692
     21 H10        11.0664   41.0109   31.4592 hc       1 MOL       0.0692
     22 H11        11.1379   41.0806   29.6924 hc       1 MOL       0.0692
     23 H12        11.9879   38.0708   28.7386 hc       1 MOL       0.0418
     24 H13        10.8691   36.8148   28.1952 hc       1 MOL       0.0418
     25 H14        11.3077   36.9301   29.8978 hc       1 MOL       0.0418
     26 H15        10.6721   39.7851   27.5639 hc       1 MOL       0.0418
     27 H16         8.9487   40.0487   27.8112 hc       1 MOL       0.0418
     28 H17         9.5027   38.5806   27.0094 hc       1 MOL       0.0418
     29 H18         9.6211   38.1246   33.6963 zd       1 MOL       0.3428
     30 H19         8.6265   39.2645   32.9981 zd       1 MOL       0.3428
     31 H20        10.2272   39.6286   33.2721 zd       1 MOL       0.3428
@<TRIPOS>BOND
     1     1     2    1
     2     1     4    1
     3     1    12    1
     4     1    13    1
     5     2     6    1
     6     2    14    1
     7     2    15    1
     8     3     4    1
     9     3     5    1
    10     3    16    1
    11     3    17    1
    12     4     7    1
    13     4    18    1
    14     5     6    1
    15     5    11    1
    16     5    19    1
    17     6     7    1
    18     6     8    1
    19     7     9    1
    20     7    10    1
    21     8    20    1
    22     8    21    1
    23     8    22    1
    24     9    23    1
    25     9    24    1
    26     9    25    1
    27    10    26    1
    28    10    27    1
    29    10    28    1
    30    11    29    1
    31    11    30    1
    32    11    31    1
