@<TRIPOS>MOLECULE
    MOL
  144   168     0     0     0
SMALL
USER_CHARGES

@<TRIPOS>ATOM
      1 O1          6.8390   39.9970   34.0930 o        1 MOL      -0.5051
      2 C1          5.9010   39.4370   33.5700 c        1 MOL       0.4978
      3 N1          4.9180   40.0590   32.8460 n        1 MOL      -0.1104
      4 C2          3.8020   39.1720   32.5600 c3       1 MOL      -0.0847
      5 C3          4.8050   41.5040   32.6900 c3       1 MOL       0.0256
      6 N2          5.0700   41.9750   31.3350 n        1 MOL      -0.1104
      7 C4          4.0310   42.0030   30.3170 c3       1 MOL      -0.0847
      8 C5          6.1590   42.7260   30.9810 c        1 MOL       0.4978
      9 O2          7.0860   43.0000   31.7100 o        1 MOL      -0.5051
     10 N3          5.9310   43.2800   29.7490 n        1 MOL      -0.1104
     11 C6          4.6310   42.9100   29.2140 c3       1 MOL      -0.0847
     12 C7          6.7030   44.3860   29.1930 c3       1 MOL       0.0256
     13 N4          7.5260   44.0160   28.0470 n        1 MOL      -0.1104
     14 C8          6.9920   43.9990   26.6950 c3       1 MOL      -0.0847
     15 C9          8.8960   43.9910   28.0610 c        1 MOL       0.4978
     16 O3          9.5880   44.1600   29.0400 o        1 MOL      -0.5051
     17 N5          9.3490   43.9500   26.7690 n        1 MOL      -0.1104
     18 C10         8.2600   43.9530   25.8060 c3       1 MOL      -0.0847
     19 C11        10.7230   44.2360   26.3730 c3       1 MOL       0.0256
     20 N6         11.4510   43.0720   25.8810 n        1 MOL      -0.1104
     21 C12        11.3760   42.6550   24.4890 c3       1 MOL      -0.0847
     22 C13        12.5000   42.4860   26.5380 c        1 MOL       0.4978
     23 O4         12.8820   42.7810   27.6480 o        1 MOL      -0.5051
     24 N7         13.1650   41.6660   25.6660 n        1 MOL      -0.1104
     25 C14        12.5680   41.6770   24.3400 c3       1 MOL      -0.0847
     26 C15        14.5030   41.1340   25.8990 c3       1 MOL       0.0256
     27 N8         14.5370   39.6910   26.1130 n        1 MOL      -0.1104
     28 C16        14.6010   38.7550   25.0020 c3       1 MOL      -0.0847
     29 C17        14.8560   39.0980   27.3060 c        1 MOL       0.4978
     30 O5         15.0360   39.6830   28.3510 o        1 MOL      -0.5051
     31 N9         15.1370   37.7770   27.0810 n        1 MOL      -0.1104
     32 C18        15.0160   37.4230   25.6760 c3       1 MOL      -0.0847
     33 C19        15.8250   36.9120   28.0320 c3       1 MOL       0.0256
     34 N10        14.9820   35.8630   28.5950 n        1 MOL      -0.1104
     35 C20        14.7870   34.5920   27.9160 c3       1 MOL      -0.0847
     36 C21        14.5930   35.8110   29.9080 c        1 MOL       0.4978
     37 O6         14.7970   36.6740   30.7320 o        1 MOL      -0.5051
     38 N11        14.1240   34.5530   30.1800 n        1 MOL      -0.1104
     39 C22        14.1890   33.6810   29.0180 c3       1 MOL      -0.0847
     40 C23        13.9270   34.0250   31.5240 c3       1 MOL       0.0256
     41 N12        12.5270   33.8180   31.8790 n        1 MOL      -0.1104
     42 C24        11.8250   32.5910   31.5370 c3       1 MOL      -0.0847
     43 C25        11.8570   34.5500   32.8230 c        1 MOL       0.4978
     44 O7         12.2970   35.5210   33.3960 o        1 MOL      -0.5051
     45 N13        10.7030   33.8910   33.1550 n        1 MOL      -0.1104
     46 C26        10.5560   32.6420   32.4240 c3       1 MOL      -0.0847
     47 C27         9.9050   34.1850   34.3400 c3       1 MOL       0.0256
     48 N14         8.6020   34.7700   34.0450 n        1 MOL      -0.1104
     49 C28         7.4450   33.9440   33.7380 c3       1 MOL      -0.0847
     50 C29         8.2490   36.0570   34.3510 c        1 MOL       0.4978
     51 O8          8.9970   36.9010   34.7930 o        1 MOL      -0.5051
     52 N15         6.8870   36.1730   34.2680 n        1 MOL      -0.1104
     53 C30         6.1240   37.2860   34.8220 c3       1 MOL       0.0256
     54 C31         6.2520   34.9200   33.8920 c3       1 MOL      -0.0847
     55 N16         5.5140   38.1460   33.8140 n        1 MOL      -0.1104
     56 C32         4.2170   37.8400   33.2330 c3       1 MOL      -0.0847
     57 N17         4.2720   36.9030   32.1220 n        1 MOL      -0.1104
     58 C33         4.3140   35.4610   32.3360 c3       1 MOL       0.0256
     59 C34         3.9530   37.4950   30.9300 c        1 MOL       0.4978
     60 O9          3.7710   36.9110   29.8850 o        1 MOL      -0.5051
     61 N18         3.6760   38.8180   31.1550 n        1 MOL      -0.1104
     62 C35         2.9890   39.6840   30.2030 c3       1 MOL       0.0256
     63 N19         3.8320   40.7320   29.6390 n        1 MOL      -0.1104
     64 C36         4.2270   40.7780   28.3280 c        1 MOL       0.4978
     65 O10         4.0240   39.9130   27.5060 o        1 MOL      -0.5051
     66 N20         4.6980   42.0350   28.0540 n        1 MOL      -0.1104
     67 C37         4.8940   42.5580   26.7070 c3       1 MOL       0.0256
     68 N21         6.2920   42.7720   26.3500 n        1 MOL      -0.1104
     69 C38         6.9650   42.0410   25.4070 c        1 MOL       0.4978
     70 O11         6.5280   41.0670   24.8350 o        1 MOL      -0.5051
     71 N22         8.1160   42.7040   25.0740 n        1 MOL      -0.1104
     72 C39         8.9140   42.4120   23.8890 c3       1 MOL       0.0256
     73 N23        10.2190   41.8290   24.1810 n        1 MOL      -0.1104
     74 C40        10.5700   40.5400   23.8800 c        1 MOL       0.4978
     75 O12         9.8230   39.6970   23.4370 o        1 MOL      -0.5051
     76 N24        11.9320   40.4220   23.9680 n        1 MOL      -0.1104
     77 C41        12.6950   39.3110   23.4100 c3       1 MOL       0.0256
     78 N25        13.3070   38.4470   24.4130 n        1 MOL      -0.1104
     79 C42        12.9270   37.1530   24.6490 c        1 MOL       0.4978
     80 O13        11.9770   36.6000   24.1410 o        1 MOL      -0.5051
     81 N26        13.9030   36.5340   25.3840 n        1 MOL      -0.1104
     82 C43        14.0130   35.0880   25.5430 c3       1 MOL       0.0256
     83 N27        13.7480   34.6180   26.8980 n        1 MOL      -0.1104
     84 C44        12.6590   33.8680   27.2530 c        1 MOL       0.4978
     85 O14        11.7310   33.5950   26.5240 o        1 MOL      -0.5051
     86 N28        12.8880   33.3120   28.4840 n        1 MOL      -0.1104
     87 C45        12.1160   32.2050   29.0380 c3       1 MOL       0.0256
     88 N29        11.2920   32.5720   30.1840 n        1 MOL      -0.1104
     89 C46         9.9230   32.6050   30.1680 c        1 MOL       0.4978
     90 O15         9.2310   32.4420   29.1880 o        1 MOL      -0.5051
     91 N30         9.4670   32.6480   31.4590 n        1 MOL      -0.1104
     92 C47         8.0910   32.3660   31.8500 c3       1 MOL       0.0256
     93 N31         7.3660   33.5310   32.3460 n        1 MOL      -0.1104
     94 C48         6.3240   34.1260   31.6860 c        1 MOL       0.4978
     95 N32         5.6540   34.9340   32.5660 n        1 MOL      -0.1104
     96 O16         5.9270   33.8180   30.5830 o        1 MOL      -0.5051
     97 H1          2.8620   39.5850   32.9460 h2       1 MOL       0.1332
     98 H2          5.5370   41.9760   33.3610 h2       1 MOL       0.0770
     99 H3          3.7880   41.8050   32.9680 h2       1 MOL       0.0770
    100 H4          3.0870   42.3790   30.7300 h2       1 MOL       0.1332
    101 H5          4.0260   43.8000   29.0000 h2       1 MOL       0.1332
    102 H6          7.3700   44.7630   29.9810 h2       1 MOL       0.0770
    103 H7          6.0060   45.1720   28.8790 h2       1 MOL       0.0770
    104 H8          6.3590   44.8770   26.5120 h2       1 MOL       0.1332
    105 H9          8.3460   44.8030   25.1180 h2       1 MOL       0.1332
    106 H10        11.2570   44.6200   27.2550 h2       1 MOL       0.0770
    107 H11        10.7050   44.9940   25.5810 h2       1 MOL       0.0770
    108 H12        11.4310   43.5200   23.8170 h2       1 MOL       0.1332
    109 H13        13.2980   41.9870   23.5830 h2       1 MOL       0.1332
    110 H14        15.1260   41.3700   25.0290 h2       1 MOL       0.0770
    111 H15        14.9070   41.6190   26.7990 h2       1 MOL       0.0770
    112 H16        15.3080   39.1000   24.2380 h2       1 MOL       0.1332
    113 H17        15.9580   37.0120   25.2920 h2       1 MOL       0.1332
    114 H18        16.6720   36.4390   27.5210 h2       1 MOL       0.0770
    115 H19        16.1830   37.5390   28.8610 h2       1 MOL       0.0770
    116 H20        15.7320   34.2180   27.5030 h2       1 MOL       0.1332
    117 H21        14.7940   32.7910   29.2280 h2       1 MOL       0.1332
    118 H22        14.4490   33.0640   31.5990 h2       1 MOL       0.0770
    119 H23        14.3540   34.7450   32.2370 h2       1 MOL       0.0770
    120 H24        12.4550   31.7130   31.7230 h2       1 MOL       0.1332
    121 H25        10.4660   31.7930   33.1120 h2       1 MOL       0.1332
    122 H26         9.7480   33.2510   34.8930 h2       1 MOL       0.0770
    123 H27        10.4660   34.9020   34.9560 h2       1 MOL       0.0770
    124 H28         7.3920   33.0770   34.4090 h2       1 MOL       0.1332
    125 H29         6.8100   37.9010   35.4220 h2       1 MOL       0.0770
    126 H30         5.3280   36.8780   35.4560 h2       1 MOL       0.0770
    127 H31         5.5230   34.6070   34.6480 h2       1 MOL       0.1332
    128 H32         3.5120   37.4990   34.0010 h2       1 MOL       0.1332
    129 H33         3.6930   35.2220   33.2070 h2       1 MOL       0.0770
    130 H34         3.9080   34.9740   31.4370 h2       1 MOL       0.0770
    131 H35         2.1430   40.1580   30.7140 h2       1 MOL       0.0770
    132 H36         2.6290   39.0570   29.3740 h2       1 MOL       0.0770
    133 H37         4.3660   43.5160   26.6280 h2       1 MOL       0.0770
    134 H38         4.4710   41.8330   25.9970 h2       1 MOL       0.0770
    135 H39         9.0680   43.3460   23.3360 h2       1 MOL       0.0770
    136 H40         8.3540   41.6950   23.2720 h2       1 MOL       0.0770
    137 H41        12.0080   38.6970   22.8090 h2       1 MOL       0.0770
    138 H42        13.4890   39.7200   22.7750 h2       1 MOL       0.0770
    139 H43        13.2790   34.6170   24.8730 h2       1 MOL       0.0770
    140 H44        15.0290   34.7850   25.2630 h2       1 MOL       0.0770
    141 H45        11.4490   31.8290   28.2490 h2       1 MOL       0.0770
    142 H46        12.8130   31.4190   29.3500 h2       1 MOL       0.0770
    143 H47         7.5580   31.9880   30.9660 h2       1 MOL       0.0770
    144 H48         8.1040   31.6050   32.6390 h2       1 MOL       0.0770
@<TRIPOS>BOND
     1     1     2    2
     2     2     3    1
     3     2    55    1
     4     3     4    1
     5     3     5    1
     6     4    56    1
     7     4    61    1
     8     4    97    1
     9     5     6    1
    10     5    98    1
    11     5    99    1
    12     6     7    1
    13     6     8    1
    14     7    11    1
    15     7    63    1
    16     7   100    1
    17     8     9    2
    18     8    10    1
    19    10    11    1
    20    10    12    1
    21    11    66    1
    22    11   101    1
    23    12    13    1
    24    12   102    1
    25    12   103    1
    26    13    14    1
    27    13    15    1
    28    14    18    1
    29    14    68    1
    30    14   104    1
    31    15    16    2
    32    15    17    1
    33    17    18    1
    34    17    19    1
    35    18    71    1
    36    18   105    1
    37    19    20    1
    38    19   106    1
    39    19   107    1
    40    20    21    1
    41    20    22    1
    42    21    25    1
    43    21    73    1
    44    21   108    1
    45    22    23    2
    46    22    24    1
    47    24    25    1
    48    24    26    1
    49    25    76    1
    50    25   109    1
    51    26    27    1
    52    26   110    1
    53    26   111    1
    54    27    28    1
    55    27    29    1
    56    28    32    1
    57    28    78    1
    58    28   112    1
    59    29    30    2
    60    29    31    1
    61    31    32    1
    62    31    33    1
    63    32    81    1
    64    32   113    1
    65    33    34    1
    66    33   114    1
    67    33   115    1
    68    34    35    1
    69    34    36    1
    70    35    39    1
    71    35    83    1
    72    35   116    1
    73    36    37    2
    74    36    38    1
    75    38    39    1
    76    38    40    1
    77    39    86    1
    78    39   117    1
    79    40    41    1
    80    40   118    1
    81    40   119    1
    82    41    42    1
    83    41    43    1
    84    42    46    1
    85    42    88    1
    86    42   120    1
    87    43    44    2
    88    43    45    1
    89    45    46    1
    90    45    47    1
    91    46    91    1
    92    46   121    1
    93    47    48    1
    94    47   122    1
    95    47   123    1
    96    48    49    1
    97    48    50    1
    98    49    54    1
    99    49    93    1
   100    49   124    1
   101    50    51    2
   102    50    52    1
   103    52    53    1
   104    52    54    1
   105    53    55    1
   106    53   125    1
   107    53   126    1
   108    54    95    1
   109    54   127    1
   110    55    56    1
   111    56    57    1
   112    56   128    1
   113    57    58    1
   114    57    59    1
   115    58    95    1
   116    58   129    1
   117    58   130    1
   118    59    60    2
   119    59    61    1
   120    61    62    1
   121    62    63    1
   122    62   131    1
   123    62   132    1
   124    63    64    1
   125    64    65    2
   126    64    66    1
   127    66    67    1
   128    67    68    1
   129    67   133    1
   130    67   134    1
   131    68    69    1
   132    69    70    2
   133    69    71    1
   134    71    72    1
   135    72    73    1
   136    72   135    1
   137    72   136    1
   138    73    74    1
   139    74    75    2
   140    74    76    1
   141    76    77    1
   142    77    78    1
   143    77   137    1
   144    77   138    1
   145    78    79    1
   146    79    80    2
   147    79    81    1
   148    81    82    1
   149    82    83    1
   150    82   139    1
   151    82   140    1
   152    83    84    1
   153    84    85    2
   154    84    86    1
   155    86    87    1
   156    87    88    1
   157    87   141    1
   158    87   142    1
   159    88    89    1
   160    89    90    2
   161    89    91    1
   162    91    92    1
   163    92    93    1
   164    92   143    1
   165    92   144    1
   166    93    94    1
   167    94    95    1
   168    94    96    2
