@<TRIPOS>MOLECULE
    MOL
  144   168     0     0     0
SMALL
USER_CHARGES

@<TRIPOS>ATOM
      1 O1          6.8512   40.0007   34.0955 o        1 MOL      -0.5051
      2 C1          5.8799   39.4520   33.6128 c        1 MOL       0.4978
      3 N1          4.8868   40.0715   32.8809 n        1 MOL      -0.1104
      4 C2          3.7623   39.1738   32.5872 c3       1 MOL      -0.0847
      5 C3          4.7410   41.5231   32.7054 c3       1 MOL       0.0256
      6 N2          5.0420   42.0078   31.3513 n        1 MOL      -0.1104
      7 C4          3.9948   42.0329   30.3218 c3       1 MOL      -0.0847
      8 C5          6.1424   42.7640   31.0017 c        1 MOL       0.4978
      9 O2          7.0969   43.0019   31.7157 o        1 MOL      -0.5051
     10 N3          5.9056   43.3187   29.7603 n        1 MOL      -0.1104
     11 C6          4.5944   42.9404   29.2183 c3       1 MOL      -0.0847
     12 C7          6.6580   44.4350   29.1714 c3       1 MOL       0.0256
     13 N4          7.5179   44.0626   28.0397 n        1 MOL      -0.1104
     14 C8          6.9788   44.0407   26.6736 c3       1 MOL      -0.0847
     15 C9          8.8977   44.0367   28.0617 c        1 MOL       0.4978
     16 O3          9.5949   44.1573   29.0500 o        1 MOL      -0.5051
     17 N5          9.3474   43.9955   26.7575 n        1 MOL      -0.1104
     18 C10         8.2472   43.9936   25.7850 c3       1 MOL      -0.0847
     19 C11        10.7215   44.2821   26.3233 c3       1 MOL       0.0256
     20 N6         11.4730   43.1077   25.8595 n        1 MOL      -0.1104
     21 C12        11.3939   42.6830   24.4558 c3       1 MOL      -0.0847
     22 C13        12.5281   42.5212   26.5285 c        1 MOL       0.4978
     23 O4         12.8844   42.7821   27.6609 o        1 MOL      -0.5051
     24 N7         13.1930   41.6968   25.6435 n        1 MOL      -0.1104
     25 C14        12.5860   41.7046   24.3063 c3       1 MOL      -0.0847
     26 C15        14.5412   41.1478   25.8435 c3       1 MOL       0.0256
     27 N8         14.5805   39.7007   26.0957 n        1 MOL      -0.1104
     28 C16        14.6396   38.7538   24.9746 c3       1 MOL      -0.0847
     29 C17        14.9012   39.1100   27.3013 c        1 MOL       0.4978
     30 O5         15.0367   39.6882   28.3618 o        1 MOL      -0.5051
     31 N9         15.1822   37.7793   27.0664 n        1 MOL      -0.1104
     32 C18        15.0555   37.4218   25.6478 c3       1 MOL      -0.0847
     33 C19        15.8774   36.8809   27.9984 c3       1 MOL       0.0256
     34 N10        15.0263   35.8439   28.5978 n        1 MOL      -0.1104
     35 C20        14.8243   34.5614   27.9110 c3       1 MOL      -0.0847
     36 C21        14.6358   35.7999   29.9209 c        1 MOL       0.4978
     37 O6         14.7972   36.6842   30.7390 o        1 MOL      -0.5051
     38 N11        14.1642   34.5305   30.1876 n        1 MOL      -0.1104
     39 C22        14.2258   33.6514   29.0130 c3       1 MOL      -0.0847
     40 C23        13.9585   33.9649   31.5279 c3       1 MOL       0.0256
     41 N12        12.5499   33.7871   31.9062 n        1 MOL      -0.1104
     42 C24        11.8381   32.5507   31.5573 c3       1 MOL      -0.0847
     43 C25        11.8796   34.5303   32.8566 c        1 MOL       0.4978
     44 O7         12.2991   35.5338   33.3993 o        1 MOL      -0.5051
     45 N13        10.7195   33.8597   33.1869 n        1 MOL      -0.1104
     46 C26        10.5688   32.6015   32.4446 c3       1 MOL      -0.0847
     47 C27         9.8938   34.1253   34.3731 c3       1 MOL       0.0256
     48 N14         8.5941   34.7479   34.0863 n        1 MOL      -0.1104
     49 C28         7.4257   33.9151   33.7727 c3       1 MOL      -0.0847
     50 C29         8.2467   36.0475   34.3951 c        1 MOL       0.4978
     51 O8          9.0044   36.9098   34.7948 o        1 MOL      -0.5051
     52 N15         6.8735   36.1563   34.3100 n        1 MOL      -0.1104
     53 C30         6.0734   37.2587   34.8611 c3       1 MOL       0.0256
     54 C31         6.2331   34.8918   33.9260 c3       1 MOL      -0.0847
     55 N16         5.4847   38.1514   33.8532 n        1 MOL      -0.1104
     56 C32         4.1774   37.8419   33.2604 c3       1 MOL      -0.0847
     57 N17         4.2291   36.8939   32.1402 n        1 MOL      -0.1104
     58 C33         4.2748   35.4469   32.3915 c3       1 MOL       0.0256
     59 C34         3.9087   37.4841   30.9344 c        1 MOL       0.4978
     60 O9          3.7717   36.9056   29.8742 o        1 MOL      -0.5051
     61 N18         3.6302   38.8154   31.1691 n        1 MOL      -0.1104
     62 C35         2.9371   39.7143   30.2358 c3       1 MOL       0.0256
     63 N19         3.7892   40.7506   29.6358 n        1 MOL      -0.1104
     64 C36         4.1842   40.7902   28.3140 c        1 MOL       0.4978
     65 O10         4.0247   39.9037   27.4979 o        1 MOL      -0.5051
     66 N20         4.6570   42.0589   28.0452 n        1 MOL      -0.1104
     67 C37         4.8614   42.6203   26.7025 c3       1 MOL       0.0256
     68 N21         6.2691   42.8038   26.3225 n        1 MOL      -0.1104
     69 C38         6.9416   42.0610   25.3735 c        1 MOL       0.4978
     70 O11         6.5252   41.0554   24.8322 o        1 MOL      -0.5051
     71 N22         8.0994   42.7353   25.0421 n        1 MOL      -0.1104
     72 C39         8.9247   42.4704   23.8554 c3       1 MOL       0.0256
     73 N23        10.2262   41.8502   24.1402 n        1 MOL      -0.1104
     74 C40        10.5726   40.5491   23.8372 c        1 MOL       0.4978
     75 O12         9.8147   39.6865   23.4385 o        1 MOL      -0.5051
     76 N24        11.9456   40.4388   23.9258 n        1 MOL      -0.1104
     77 C41        12.7449   39.3374   23.3714 c3       1 MOL       0.0256
     78 N25        13.3352   38.4422   24.3763 n        1 MOL      -0.1104
     79 C42        12.9455   37.1389   24.6098 c        1 MOL       0.4978
     80 O13        11.9660   36.5949   24.1386 o        1 MOL      -0.5051
     81 N26        13.9341   36.5214   25.3492 n        1 MOL      -0.1104
     82 C43        14.0780   35.0697   25.5264 c3       1 MOL       0.0256
     83 N27        13.7779   34.5843   26.8807 n        1 MOL      -0.1104
     84 C44        12.6764   33.8301   27.2308 c        1 MOL       0.4978
     85 O14        11.7210   33.5941   26.5174 o        1 MOL      -0.5051
     86 N28        12.9139   33.2738   28.4715 n        1 MOL      -0.1104
     87 C45        12.1600   32.1572   29.0584 c3       1 MOL       0.0256
     88 N29        11.2998   32.5270   30.1911 n        1 MOL      -0.1104
     89 C46         9.9204   32.5599   30.1669 c        1 MOL       0.4978
     90 O15         9.2240   32.4436   29.1775 o        1 MOL      -0.5051
     91 N30         9.4693   32.6019   31.4707 n        1 MOL      -0.1104
     92 C47         8.0931   32.3184   31.9011 c3       1 MOL       0.0256
     93 N31         7.3436   33.4927   32.3686 n        1 MOL      -0.1104
     94 C48         6.2940   34.0874   31.6978 c        1 MOL       0.4978
     95 N32         5.6252   34.9021   32.5891 n        1 MOL      -0.1104
     96 O16         5.9268   33.8183   30.5706 o        1 MOL      -0.5051
     97 H1          2.8228   39.5905   32.9712 h2       1 MOL       0.1332
     98 H2          5.4399   42.0129   33.3963 h2       1 MOL       0.0770
     99 H3          3.7085   41.7972   32.9475 h2       1 MOL       0.0770
    100 H4          3.0506   42.4061   30.7379 h2       1 MOL       0.1332
    101 H5          3.9923   43.8317   29.0019 h2       1 MOL       0.1332
    102 H6          7.3039   44.8504   29.9563 h2       1 MOL       0.0770
    103 H7          5.9420   45.1887   28.8263 h2       1 MOL       0.0770
    104 H8          6.3435   44.9169   26.4932 h2       1 MOL       0.1332
    105 H9          8.3372   44.8427   25.0958 h2       1 MOL       0.1332
    106 H10        11.2602   44.7025   27.1829 h2       1 MOL       0.0770
    107 H11        10.6795   45.0091   25.5051 h2       1 MOL       0.0770
    108 H12        11.4450   43.5496   23.7848 h2       1 MOL       0.1332
    109 H13        13.3188   42.0114   23.5495 h2       1 MOL       0.1332
    110 H14        15.1347   41.3573   24.9471 h2       1 MOL       0.0770
    111 H15        14.9771   41.6489   26.7180 h2       1 MOL       0.0770
    112 H16        15.3441   39.1024   24.2091 h2       1 MOL       0.1332
    113 H17        15.9973   37.0077   25.2664 h2       1 MOL       0.1332
    114 H18        16.6922   36.3875   27.4577 h2       1 MOL       0.0770
    115 H19        16.2767   37.4958   28.8160 h2       1 MOL       0.0770
    116 H20        15.7698   34.1908   27.4954 h2       1 MOL       0.1332
    117 H21        14.8283   32.7598   29.2270 h2       1 MOL       0.1332
    118 H22        14.4519   32.9878   31.5687 h2       1 MOL       0.0770
    119 H23        14.4121   34.6544   32.2523 h2       1 MOL       0.0770
    120 H24        12.4716   31.6736   31.7399 h2       1 MOL       0.1332
    121 H25        10.4758   31.7530   33.1340 h2       1 MOL       0.1332
    122 H26         9.7143   33.1750   34.8873 h2       1 MOL       0.0770
    123 H27        10.4549   34.8120   35.0208 h2       1 MOL       0.0770
    124 H28         7.3768   33.0474   34.4423 h2       1 MOL       0.1332
    125 H29         6.7349   37.8642   35.4948 h2       1 MOL       0.0770
    126 H30         5.2608   36.8293   35.4571 h2       1 MOL       0.0770
    127 H31         5.5012   34.5823   34.6826 h2       1 MOL       0.1332
    128 H32         3.4749   37.4962   34.0291 h2       1 MOL       0.1332
    129 H33         3.6835   35.2349   33.2888 h2       1 MOL       0.0770
    130 H34         3.8389   34.9445   31.5177 h2       1 MOL       0.0770
    131 H35         2.1225   40.2089   30.7757 h2       1 MOL       0.0770
    132 H36         2.5374   39.0995   29.4184 h2       1 MOL       0.0770
    133 H37         4.3633   43.5948   26.6578 h2       1 MOL       0.0770
    134 H38         4.4109   41.9261   25.9807 h2       1 MOL       0.0770
    135 H39         9.1021   43.4209   23.3406 h2       1 MOL       0.0770
    136 H40         8.3642   41.7827   23.2083 h2       1 MOL       0.0770
    137 H41        12.0824   38.7332   22.7374 h2       1 MOL       0.0770
    138 H42        13.5567   39.7678   22.7751 h2       1 MOL       0.0770
    139 H43        13.3780   34.5804   24.8362 h2       1 MOL       0.0770
    140 H44        15.1099   34.7942   25.2832 h2       1 MOL       0.0770
    141 H45        11.5140   31.7438   28.2726 h2       1 MOL       0.0770
    142 H46        12.8753   31.4022   29.4020 h2       1 MOL       0.0770
    143 H47         7.5548   31.9030   31.0388 h2       1 MOL       0.0770
    144 H48         8.1313   31.5877   32.7162 h2       1 MOL       0.0770
@<TRIPOS>BOND
     1     1     2    2
     2     2     3    1
     3     2    55    1
     4     3     4    1
     5     3     5    1
     6     4    56    1
     7     4    61    1
     8     4    97    1
     9     5     6    1
    10     5    98    1
    11     5    99    1
    12     6     7    1
    13     6     8    1
    14     7    11    1
    15     7    63    1
    16     7   100    1
    17     8     9    2
    18     8    10    1
    19    10    11    1
    20    10    12    1
    21    11    66    1
    22    11   101    1
    23    12    13    1
    24    12   102    1
    25    12   103    1
    26    13    14    1
    27    13    15    1
    28    14    18    1
    29    14    68    1
    30    14   104    1
    31    15    16    2
    32    15    17    1
    33    17    18    1
    34    17    19    1
    35    18    71    1
    36    18   105    1
    37    19    20    1
    38    19   106    1
    39    19   107    1
    40    20    21    1
    41    20    22    1
    42    21    25    1
    43    21    73    1
    44    21   108    1
    45    22    23    2
    46    22    24    1
    47    24    25    1
    48    24    26    1
    49    25    76    1
    50    25   109    1
    51    26    27    1
    52    26   110    1
    53    26   111    1
    54    27    28    1
    55    27    29    1
    56    28    32    1
    57    28    78    1
    58    28   112    1
    59    29    30    2
    60    29    31    1
    61    31    32    1
    62    31    33    1
    63    32    81    1
    64    32   113    1
    65    33    34    1
    66    33   114    1
    67    33   115    1
    68    34    35    1
    69    34    36    1
    70    35    39    1
    71    35    83    1
    72    35   116    1
    73    36    37    2
    74    36    38    1
    75    38    39    1
    76    38    40    1
    77    39    86    1
    78    39   117    1
    79    40    41    1
    80    40   118    1
    81    40   119    1
    82    41    42    1
    83    41    43    1
    84    42    46    1
    85    42    88    1
    86    42   120    1
    87    43    44    2
    88    43    45    1
    89    45    46    1
    90    45    47    1
    91    46    91    1
    92    46   121    1
    93    47    48    1
    94    47   122    1
    95    47   123    1
    96    48    49    1
    97    48    50    1
    98    49    54    1
    99    49    93    1
   100    49   124    1
   101    50    51    2
   102    50    52    1
   103    52    53    1
   104    52    54    1
   105    53    55    1
   106    53   125    1
   107    53   126    1
   108    54    95    1
   109    54   127    1
   110    55    56    1
   111    56    57    1
   112    56   128    1
   113    57    58    1
   114    57    59    1
   115    58    95    1
   116    58   129    1
   117    58   130    1
   118    59    60    2
   119    59    61    1
   120    61    62    1
   121    62    63    1
   122    62   131    1
   123    62   132    1
   124    63    64    1
   125    64    65    2
   126    64    66    1
   127    66    67    1
   128    67    68    1
   129    67   133    1
   130    67   134    1
   131    68    69    1
   132    69    70    2
   133    69    71    1
   134    71    72    1
   135    72    73    1
   136    72   135    1
   137    72   136    1
   138    73    74    1
   139    74    75    2
   140    74    76    1
   141    76    77    1
   142    77    78    1
   143    77   137    1
   144    77   138    1
   145    78    79    1
   146    79    80    2
   147    79    81    1
   148    81    82    1
   149    82    83    1
   150    82   139    1
   151    82   140    1
   152    83    84    1
   153    84    85    2
   154    84    86    1
   155    86    87    1
   156    87    88    1
   157    87   141    1
   158    87   142    1
   159    88    89    1
   160    89    90    2
   161    89    91    1
   162    91    92    1
   163    92    93    1
   164    92   143    1
   165    92   144    1
   166    93    94    1
   167    94    95    1
   168    94    96    2
