@<TRIPOS>MOLECULE
    MOL
   49    52     0     0     0
SMALL
USER_CHARGES

@<TRIPOS>ATOM
      1 C1         11.5660   40.4510   32.9500 ca       1 MOL      -0.3167
      2 C2         11.6680   41.6890   32.2930 ca       1 MOL      -0.1478
      3 C3         11.2390   36.8830   30.8490 ca       1 MOL      -0.3520
      4 C4         11.5760   40.5400   30.1570 za       1 MOL      -0.3802
      5 C5         11.2590   36.9410   32.2480 ca       1 MOL       0.2155
      6 C6         11.4670   39.2870   30.8090 zb       1 MOL      -0.0048
      7 C7         11.3480   38.0670   30.0910 zc       1 MOL       0.0928
      8 C8         11.4630   39.2480   32.2340 ca       1 MOL       0.4840
      9 C9         11.6740   41.7300   30.8890 zd       1 MOL       0.3073
     10 C10         7.1910   35.1560   27.5610 ze       1 MOL      -0.3340
     11 C11         6.9740   36.2150   26.7680 zf       1 MOL      -0.1813
     12 C12         8.3430   39.8630   26.6460 c3       1 MOL      -0.0174
     13 C13         9.6210   37.7010   26.5930 c3       1 MOL      -0.1521
     14 C14         8.7780   39.9880   28.1350 c3       1 MOL      -0.0541
     15 C15         7.4210   37.9750   28.6400 c3       1 MOL       0.0017
     16 C16         7.1270   37.6920   27.1280 zg       1 MOL      -0.0165
     17 C17         8.2450   38.3580   26.2540 zh       1 MOL      -0.0476
     18 C18         9.8240   37.7010   28.1400 zi       1 MOL      -0.0743
     19 C19        11.9640   44.1920   30.8120 zj       1 MOL      -0.0427
     20 C20        11.2890   37.9720   28.5620 zk       1 MOL       0.1335
     21 N1         11.3500   38.0970   32.9200 nb       1 MOL      -0.5552
     22 N2          8.8030   38.6190   28.8420 zl       1 MOL      -0.0372
     23 O1         12.1120   36.8980   28.1270 zm       1 MOL      -0.6368
     24 O2         11.7690   42.9100   30.1840 zn       1 MOL      -0.3180
     25 H1         11.5650   40.4090   34.0350 ha       1 MOL       0.1992
     26 H2         11.7470   42.5960   32.8840 ha       1 MOL       0.1655
     27 H3         11.1540   35.9130   30.3670 ha       1 MOL       0.1657
     28 H4         11.6170   40.6340   29.0810 ha       1 MOL       0.1244
     29 H5         11.1820   36.0360   32.8490 h4       1 MOL       0.1150
     30 H6          7.1260   34.1440   27.1590 zo       1 MOL       0.1682
     31 H7          7.3830   35.2310   28.6280 zo       1 MOL       0.1682
     32 H8          6.7370   36.0370   25.7180 ha       1 MOL       0.1617
     33 H9          7.3730   40.3560   26.4980 hc       1 MOL       0.0558
     34 H10         9.0640   40.3840   26.0020 hc       1 MOL       0.0558
     35 H11         9.6670   36.6700   26.2180 hc       1 MOL       0.1031
     36 H12        10.4310   38.2470   26.0930 hc       1 MOL       0.1031
     37 H13         9.7790   40.4210   28.1900 hx       1 MOL       0.0940
     38 H14         8.0890   40.6480   28.6700 hx       1 MOL       0.0940
     39 H15         6.6660   38.6610   29.0340 hx       1 MOL       0.1012
     40 H16         7.3760   37.0550   29.2230 hx       1 MOL       0.1012
     41 H17         6.1750   38.1830   26.8830 hc       1 MOL       0.0986
     42 H18         8.0180   38.2540   25.1840 hc       1 MOL       0.1015
     43 H19         9.6020   36.6890   28.4870 hx       1 MOL       0.1067
     44 H20        12.0320   44.9760   30.0460 h1       1 MOL       0.0921
     45 H21        12.8950   44.1950   31.3930 h1       1 MOL       0.0921
     46 H22        11.1220   44.4280   31.4750 h1       1 MOL       0.0921
     47 H23        11.6340   38.8950   28.0870 h1       1 MOL       0.2311
     48 H24         9.0630   38.7110   29.8440 hn       1 MOL       0.1967
     49 H25        13.0130   37.0780   28.4590 zp       1 MOL       0.4466
@<TRIPOS>BOND
     1     1     2    1
     2     1     8    2
     3     1    25    1
     4     2     9    2
     5     2    26    1
     6     3     5    1
     7     3     7    2
     8     3    27    1
     9     4     6    2
    10     4     9    1
    11     4    28    1
    12     5    21    2
    13     5    29    1
    14     6     7    1
    15     6     8    1
    16     7    20    1
    17     8    21    1
    18     9    24    1
    19    10    11    2
    20    10    30    1
    21    10    31    1
    22    11    16    1
    23    11    32    1
    24    12    14    1
    25    12    17    1
    26    12    33    1
    27    12    34    1
    28    13    17    1
    29    13    18    1
    30    13    35    1
    31    13    36    1
    32    14    22    1
    33    14    37    1
    34    14    38    1
    35    15    16    1
    36    15    22    1
    37    15    39    1
    38    15    40    1
    39    16    17    1
    40    16    41    1
    41    17    42    1
    42    18    20    1
    43    18    22    1
    44    18    43    1
    45    19    24    1
    46    19    44    1
    47    19    45    1
    48    19    46    1
    49    20    23    1
    50    20    47    1
    51    22    48    1
    52    23    49    1
