@<TRIPOS>MOLECULE
    MOL
   49    52     0     0     0
SMALL
USER_CHARGES

@<TRIPOS>ATOM
      1 C1         11.6709   40.5883   32.9387 ca       1 MOL      -0.3167
      2 C2         11.8412   41.8031   32.2476 ca       1 MOL      -0.1478
      3 C3         11.0970   37.0013   30.9397 ca       1 MOL      -0.3520
      4 C4         11.6363   40.6228   30.1340 za       1 MOL      -0.3802
      5 C5         11.1287   37.0909   32.3332 ca       1 MOL       0.2155
      6 C6         11.4781   39.3902   30.8270 zb       1 MOL      -0.0048
      7 C7         11.2819   38.1545   30.1565 zc       1 MOL       0.0928
      8 C8         11.4881   39.3788   32.2525 ca       1 MOL       0.4840
      9 C9         11.8221   41.8187   30.8410 zd       1 MOL       0.3073
     10 C10         7.3145   35.0611   27.1006 ze       1 MOL      -0.3340
     11 C11         6.9433   36.2074   26.5121 zf       1 MOL      -0.1813
     12 C12         8.2735   39.8553   26.8831 c3       1 MOL      -0.0174
     13 C13         9.5976   37.7311   26.6353 c3       1 MOL      -0.1521
     14 C14         8.5814   39.8136   28.4099 c3       1 MOL      -0.0541
     15 C15         7.3598   37.6797   28.6088 c3       1 MOL       0.0017
     16 C16         7.0934   37.6195   27.0697 zg       1 MOL      -0.0165
     17 C17         8.2239   38.4013   26.3231 zh       1 MOL      -0.0476
     18 C18         9.7898   37.6330   28.1866 zi       1 MOL      -0.0743
     19 C19        12.2128   44.2688   30.7036 zj       1 MOL      -0.0427
     20 C20        11.2261   38.0109   28.6280 zk       1 MOL       0.1335
     21 N1         11.3098   38.2548   32.9669 nb       1 MOL      -0.5552
     22 N2          8.6799   38.3794   28.9474 zl       1 MOL      -0.0372
     23 O1         12.0918   36.9539   28.2034 zm       1 MOL      -0.6368
     24 O2         11.9693   42.9776   30.1095 zn       1 MOL      -0.3180
     25 H1         11.6818   40.5686   34.0253 ha       1 MOL       0.1992
     26 H2         11.9850   42.7199   32.8112 ha       1 MOL       0.1655
     27 H3         10.9587   36.0291   30.4726 ha       1 MOL       0.1657
     28 H4         11.6402   40.7030   29.0558 ha       1 MOL       0.1244
     29 H5         11.0049   36.2078   32.9633 h4       1 MOL       0.1150
     30 H6          7.2210   34.1124   26.5699 zo       1 MOL       0.1682
     31 H7          7.6897   34.9957   28.1188 zo       1 MOL       0.1682
     32 H8          6.5468   36.1707   25.4951 ha       1 MOL       0.1617
     33 H9          7.3156   40.3629   26.7079 hc       1 MOL       0.0558
     34 H10         9.0433   40.4395   26.3618 hc       1 MOL       0.0558
     35 H11         9.6464   36.7247   26.1962 hc       1 MOL       0.1031
     36 H12        10.4083   38.3039   26.1648 hc       1 MOL       0.1031
     37 H13         9.5276   40.3169   28.6156 hx       1 MOL       0.0940
     38 H14         7.7908   40.3266   28.9619 hx       1 MOL       0.0940
     39 H15         6.5551   38.2314   29.0988 hx       1 MOL       0.1012
     40 H16         7.3913   36.6773   29.0342 hx       1 MOL       0.1012
     41 H17         6.1445   38.1418   26.8824 hc       1 MOL       0.0986
     42 H18         8.0365   38.4144   25.2398 hc       1 MOL       0.1015
     43 H19         9.6633   36.5824   28.4582 hx       1 MOL       0.1067
     44 H20        12.3082   45.0290   29.9175 h1       1 MOL       0.0921
     45 H21        13.1452   44.2565   31.2832 h1       1 MOL       0.0921
     46 H22        11.3818   44.5558   31.3607 h1       1 MOL       0.0921
     47 H23        11.5185   38.9458   28.1367 h1       1 MOL       0.2311
     48 H24         8.8561   38.3654   29.9658 hn       1 MOL       0.1967
     49 H25        13.0092   37.1465   28.4833 zp       1 MOL       0.4466
@<TRIPOS>BOND
     1     1     2    1
     2     1     8    2
     3     1    25    1
     4     2     9    2
     5     2    26    1
     6     3     5    1
     7     3     7    2
     8     3    27    1
     9     4     6    2
    10     4     9    1
    11     4    28    1
    12     5    21    2
    13     5    29    1
    14     6     7    1
    15     6     8    1
    16     7    20    1
    17     8    21    1
    18     9    24    1
    19    10    11    2
    20    10    30    1
    21    10    31    1
    22    11    16    1
    23    11    32    1
    24    12    14    1
    25    12    17    1
    26    12    33    1
    27    12    34    1
    28    13    17    1
    29    13    18    1
    30    13    35    1
    31    13    36    1
    32    14    22    1
    33    14    37    1
    34    14    38    1
    35    15    16    1
    36    15    22    1
    37    15    39    1
    38    15    40    1
    39    16    17    1
    40    16    41    1
    41    17    42    1
    42    18    20    1
    43    18    22    1
    44    18    43    1
    45    19    24    1
    46    19    44    1
    47    19    45    1
    48    19    46    1
    49    20    23    1
    50    20    47    1
    51    22    48    1
    52    23    49    1
